data_S4_PHPR_BOH2_tBu_H_H_H_H_H-L2_ANTR_BOH2_Br_H_H_H-SQL_A-AA

_audit_creation_date     2025-09-12
_audit_creation_method   pyCOFBuilder

_chemical_name_common                  'S4_PHPR_BOH2_tBu_H_H_H_H_H-L2_ANTR_BOH2_Br_H_H_H-SQL_A-AA'
_cell_length_a                           40.113459
_cell_length_b                           40.113459
_cell_length_c                            7.660573
_cell_angle_alpha                        90.00
_cell_angle_beta                         90.00
_cell_angle_gamma                        90.00
_space_group_name_H-M_alt               'P 1'
_space_group_IT_number                  1

loop_
_symmetry_equiv_pos_as_xyz
   'x, y, z'

loop_
   _atom_site_label
   _atom_site_type_symbol
   _atom_site_fract_x
   _atom_site_fract_y
   _atom_site_fract_z
   _atom_site_charge
B0                 B     0.338603364     0.338603364     0.500000000    0.00000
B1                 B     0.161396636     0.161396636     0.500000000    0.00000
B2                 B     0.661396636     0.338603364     0.500000000    0.00000
B3                 B     0.838603364     0.161396636     0.500000000    0.00000
B4                 B     0.838603364     0.838603364     0.500000000    0.00000
B5                 B     0.661396636     0.661396636     0.500000000    0.00000
B6                 B     0.161396636     0.838603364     0.500000000    0.00000
B7                 B     0.338603364     0.661396636     0.500000000    0.00000
H8                 H     0.500087118     0.026814566     0.499984323    0.00000
H9                 H     0.499912882     0.973185433     0.499984323    0.00000
H10                H     0.663597412     0.126730569     0.138975147    0.00000
H11                H     0.699767042     0.103921883     0.095507110    0.00000
H12                H     0.701899760     0.140105175     0.222006859    0.00000
H13                H     0.732027438     0.101573727     0.443101285    0.00000
H14                H     0.703696535     0.092377945     0.609530477    0.00000
H15                H     0.706023636     0.132792843     0.525323127    0.00000
H16                H     0.696586335     0.047826565     0.414276006    0.00000
H17                H     0.697099888     0.057601414     0.192019095    0.00000
H18                H     0.659203036     0.050413054     0.297988117    0.00000
H19                H     0.574009048     0.812098202     0.605120949    0.00000
H20                H     0.580510022     0.775037393     0.490204536    0.00000
H21                H     0.548765767     0.802271323     0.426500935    0.00000
H22                H     0.576979827     0.797885001     0.122979574    0.00000
H23                H     0.599277174     0.834739959     0.089072958    0.00000
H24                H     0.559617849     0.836148058     0.183115096    0.00000
H25                H     0.639319190     0.799056236     0.211776187    0.00000
H26                H     0.625964513     0.773423537     0.382420682    0.00000
H27                H     0.648899773     0.809439203     0.427536401    0.00000
H28                H     0.320470370     0.850469728     0.282019409    0.00000
H29                H     0.288703487     0.873161979     0.180845922    0.00000
H30                H     0.284815523     0.861490907     0.399651366    0.00000
H31                H     0.273304613     0.924419650     0.447242307    0.00000
H32                H     0.309298168     0.941911795     0.537313228    0.00000
H33                H     0.295347379     0.902967590     0.608749035    0.00000
H34                H     0.316669106     0.950411514     0.236543290    0.00000
H35                H     0.304692821     0.917796844     0.098971618    0.00000
H36                H     0.346814347     0.924010054     0.147123477    0.00000
H37                H     0.358475071     0.171622144     0.201669383    0.00000
H38                H     0.382325587     0.205286070     0.128494983    0.00000
H39                H     0.357338548     0.209514452     0.314009443    0.00000
H40                H     0.412090518     0.230163849     0.457504039    0.00000
H41                H     0.427134904     0.197853794     0.588634166    0.00000
H42                H     0.384519876     0.206847490     0.585081464    0.00000
H43                H     0.454640679     0.188979311     0.322121284    0.00000
H44                H     0.431167674     0.194978176     0.132566773    0.00000
H45                H     0.438947203     0.154638898     0.208378070    0.00000
H46                H     0.669193002     0.899642000     0.619020841    0.00000
H47                H     0.399640712     0.830808276     0.619041250    0.00000
H48                H     0.330808276     0.100359288     0.619041250    0.00000
H49                H     0.600358000     0.169193002     0.619020840    0.00000
H50                H     0.625886356     0.056298290     0.380926274    0.00000
H51                H     0.556298290     0.874113644     0.380926276    0.00000
H52                H     0.374114933     0.943700431     0.380905874    0.00000
H53                H     0.443700431     0.125885067     0.380905871    0.00000
H54                H     0.556583549     0.125043631     0.619113803    0.00000
H55                H     0.625043631     0.943416451     0.619113803    0.00000
H56                H     0.443415161     0.874957648     0.619134210    0.00000
H57                H     0.374957649     0.056584839     0.619134210    0.00000
H58                H     0.532931057     0.871416065     0.499981303    0.00000
H59                H     0.467068943     0.128583935     0.499981303    0.00000
H60                H     0.371416065     0.967068943     0.499981306    0.00000
H61                H     0.628583935     0.032931057     0.499981300    0.00000
H62                H     0.465141817     0.871888156     0.499983128    0.00000
H63                H     0.628111844     0.965141817     0.499983124    0.00000
H64                H     0.534858183     0.128111844     0.499983125    0.00000
H65                H     0.371888156     0.034858183     0.499983129    0.00000
H66                H     0.000087118     0.526814566     0.499984323    0.00000
H67                H     0.999912882     0.473185433     0.499984323    0.00000
H68                H     0.163597412     0.626730569     0.138975147    0.00000
H69                H     0.199767042     0.603921883     0.095507110    0.00000
H70                H     0.201899760     0.640105175     0.222006859    0.00000
H71                H     0.232027438     0.601573727     0.443101285    0.00000
H72                H     0.203696535     0.592377945     0.609530477    0.00000
H73                H     0.206023636     0.632792843     0.525323127    0.00000
H74                H     0.196586335     0.547826565     0.414276006    0.00000
H75                H     0.197099888     0.557601414     0.192019095    0.00000
H76                H     0.159203036     0.550413054     0.297988117    0.00000
H77                H     0.074009048     0.312098202     0.605120949    0.00000
H78                H     0.080510022     0.275037393     0.490204536    0.00000
H79                H     0.048765767     0.302271323     0.426500935    0.00000
H80                H     0.076979827     0.297885001     0.122979574    0.00000
H81                H     0.099277174     0.334739959     0.089072958    0.00000
H82                H     0.059617849     0.336148058     0.183115096    0.00000
H83                H     0.139319190     0.299056236     0.211776187    0.00000
H84                H     0.125964513     0.273423537     0.382420682    0.00000
H85                H     0.148899773     0.309439203     0.427536401    0.00000
H86                H     0.820470370     0.350469728     0.282019409    0.00000
H87                H     0.788703487     0.373161979     0.180845922    0.00000
H88                H     0.784815523     0.361490907     0.399651366    0.00000
H89                H     0.773304613     0.424419650     0.447242307    0.00000
H90                H     0.809298168     0.441911795     0.537313228    0.00000
H91                H     0.795347379     0.402967590     0.608749035    0.00000
H92                H     0.816669106     0.450411514     0.236543290    0.00000
H93                H     0.804692821     0.417796844     0.098971618    0.00000
H94                H     0.846814347     0.424010054     0.147123477    0.00000
H95                H     0.858475071     0.671622144     0.201669383    0.00000
H96                H     0.882325587     0.705286070     0.128494983    0.00000
H97                H     0.857338548     0.709514452     0.314009443    0.00000
H98                H     0.912090518     0.730163849     0.457504039    0.00000
H99                H     0.927134904     0.697853794     0.588634166    0.00000
H100               H     0.884519876     0.706847490     0.585081464    0.00000
H101               H     0.954640679     0.688979311     0.322121284    0.00000
H102               H     0.931167674     0.694978176     0.132566773    0.00000
H103               H     0.938947203     0.654638898     0.208378070    0.00000
H104               H     0.169193002     0.399642000     0.619020841    0.00000
H105               H     0.899640712     0.330808276     0.619041250    0.00000
H106               H     0.830808276     0.600359288     0.619041250    0.00000
H107               H     0.100358000     0.669193002     0.619020840    0.00000
H108               H     0.125886356     0.556298290     0.380926274    0.00000
H109               H     0.056298290     0.374113644     0.380926276    0.00000
H110               H     0.874114933     0.443700431     0.380905874    0.00000
H111               H     0.943700431     0.625885067     0.380905871    0.00000
H112               H     0.056583549     0.625043631     0.619113803    0.00000
H113               H     0.125043631     0.443416451     0.619113803    0.00000
H114               H     0.943415161     0.374957648     0.619134210    0.00000
H115               H     0.874957649     0.556584839     0.619134210    0.00000
H116               H     0.032931057     0.371416065     0.499981303    0.00000
H117               H     0.967068943     0.628583935     0.499981303    0.00000
H118               H     0.871416065     0.467068943     0.499981306    0.00000
H119               H     0.128583935     0.532931057     0.499981300    0.00000
H120               H     0.965141817     0.371888156     0.499983128    0.00000
H121               H     0.128111844     0.465141817     0.499983124    0.00000
H122               H     0.034858183     0.628111844     0.499983125    0.00000
H123               H     0.871888156     0.534858183     0.499983129    0.00000
H124               H     0.334011939     0.225571084     0.499939845    0.00000
H125               H     0.165988061     0.274428916     0.499939845    0.00000
H126               H     0.272941640     0.334430202     0.499939845    0.00000
H127               H     0.227058360     0.165569798     0.499939845    0.00000
H128               H     0.365446830     0.279354840     0.499943045    0.00000
H129               H     0.134553170     0.220645160     0.499943045    0.00000
H130               H     0.774428916     0.334011939     0.499939845    0.00000
H131               H     0.725571084     0.165988061     0.499939845    0.00000
H132               H     0.665569798     0.272941640     0.499939845    0.00000
H133               H     0.834430202     0.227058360     0.499939845    0.00000
H134               H     0.720645160     0.365446830     0.499943045    0.00000
H135               H     0.779354840     0.134553170     0.499943045    0.00000
H136               H     0.834011939     0.725571084     0.499939845    0.00000
H137               H     0.665988061     0.774428916     0.499939845    0.00000
H138               H     0.772941640     0.834430202     0.499939845    0.00000
H139               H     0.727058360     0.665569798     0.499939845    0.00000
H140               H     0.865446830     0.779354840     0.499943045    0.00000
H141               H     0.634553170     0.720645160     0.499943045    0.00000
H142               H     0.274428916     0.834011939     0.499939845    0.00000
H143               H     0.225571084     0.665988061     0.499939845    0.00000
H144               H     0.165569798     0.772941640     0.499939845    0.00000
H145               H     0.334430202     0.727058360     0.499939845    0.00000
H146               H     0.220645160     0.865446830     0.499943045    0.00000
H147               H     0.279354840     0.634553170     0.499943045    0.00000
C148               C     0.529373865     0.071599209     0.499984149    0.00000
C149               C     0.517438184     0.106896366     0.499984869    0.00000
C150               C     0.483810528     0.107121644     0.499985692    0.00000
C151               C     0.471403014     0.071987567     0.499985570    0.00000
C152               C     0.439203159     0.061604440     0.499986229    0.00000
C153               C     0.561604440     0.060796841     0.499986227    0.00000
C154               C     0.571987567     0.028596985     0.499985568    0.00000
C155               C     0.607121644     0.016189472     0.499985690    0.00000
C156               C     0.606896366     0.982561816     0.499984868    0.00000
C157               C     0.571599209     0.970626135     0.499984149    0.00000
C158               C     0.428400790     0.029373865     0.499984152    0.00000
C159               C     0.393103634     0.017438184     0.499984872    0.00000
C160               C     0.392878356     0.983810528     0.499985694    0.00000
C161               C     0.428012433     0.971403014     0.499985571    0.00000
C162               C     0.560796841     0.938395560     0.499986228    0.00000
C163               C     0.438395560     0.939203159     0.499986230    0.00000
C164               C     0.528596985     0.928012433     0.499985569    0.00000
C165               C     0.516189472     0.892878356     0.499985693    0.00000
C166               C     0.482561816     0.893103634     0.499984871    0.00000
C167               C     0.470626135     0.928400790     0.499984152    0.00000
C168               C     0.411943385     0.088637412     0.499987222    0.00000
C169               C     0.418818429     0.120264955     0.433317789    0.00000
C170               C     0.380379862     0.081503155     0.566623818    0.00000
C171               C     0.394139075     0.144756284     0.433370876    0.00000
C172               C     0.355682825     0.105991733     0.566568654    0.00000
C173               C     0.362557962     0.137615824     0.499974047    0.00000
C174               C     0.588637412     0.088056615     0.499987218    0.00000
C175               C     0.581502433     0.119620853     0.566612404    0.00000
C176               C     0.620265676     0.081180855     0.433329197    0.00000
C177               C     0.605991012     0.144317890     0.566557238    0.00000
C178               C     0.644757005     0.105860210     0.433382289    0.00000
C179               C     0.637615824     0.137442038     0.499974043    0.00000
C180               C     0.411362588     0.911943385     0.499987223    0.00000
C181               C     0.418496845     0.880379862     0.566623818    0.00000
C182               C     0.379735045     0.918818429     0.433317791    0.00000
C183               C     0.394008267     0.855682825     0.566568655    0.00000
C184               C     0.355243716     0.894139075     0.433370878    0.00000
C185               C     0.362384176     0.862557962     0.499974049    0.00000
C186               C     0.588056615     0.911362588     0.499987220    0.00000
C187               C     0.619620853     0.918497567     0.566612405    0.00000
C188               C     0.581180855     0.879734323     0.433329200    0.00000
C189               C     0.644317890     0.894008988     0.566557239    0.00000
C190               C     0.605860210     0.855242995     0.433382292    0.00000
C191               C     0.637442038     0.862384176     0.499974045    0.00000
C192               C     0.681209046     0.097933321     0.356687184    0.00000
C193               C     0.687065127     0.118761935     0.190623630    0.00000
C194               C     0.707765380     0.106849773     0.494148660    0.00000
C195               C     0.683715842     0.060594697     0.311819232    0.00000
C196               C     0.597933321     0.818790953     0.356687188    0.00000
C197               C     0.573435376     0.800666602     0.478957475    0.00000
C198               C     0.582255873     0.822147060     0.174026952    0.00000
C199               C     0.630515153     0.798639988     0.343607119    0.00000
C200               C     0.318792505     0.902065141     0.356662623    0.00000
C201               C     0.301907139     0.869296751     0.300510491    0.00000
C202               C     0.297566119     0.919144152     0.498298435    0.00000
C203               C     0.321985842     0.925347288     0.197696319    0.00000
C204               C     0.402065141     0.181207495     0.356662620    0.00000
C205               C     0.372819695     0.192791376     0.241415926    0.00000
C206               C     0.406815020     0.205902344     0.508560167    0.00000
C207               C     0.434153475     0.179847180     0.246529138    0.00000
C208               C     0.029373865     0.571599209     0.499984149    0.00000
C209               C     0.017438184     0.606896366     0.499984869    0.00000
C210               C     0.983810528     0.607121644     0.499985692    0.00000
C211               C     0.971403014     0.571987567     0.499985570    0.00000
C212               C     0.939203159     0.561604440     0.499986229    0.00000
C213               C     0.061604440     0.560796841     0.499986227    0.00000
C214               C     0.071987567     0.528596985     0.499985568    0.00000
C215               C     0.107121644     0.516189472     0.499985690    0.00000
C216               C     0.106896366     0.482561816     0.499984868    0.00000
C217               C     0.071599209     0.470626135     0.499984149    0.00000
C218               C     0.928400790     0.529373865     0.499984152    0.00000
C219               C     0.893103634     0.517438184     0.499984872    0.00000
C220               C     0.892878356     0.483810528     0.499985694    0.00000
C221               C     0.928012433     0.471403014     0.499985571    0.00000
C222               C     0.060796841     0.438395560     0.499986228    0.00000
C223               C     0.938395560     0.439203159     0.499986230    0.00000
C224               C     0.028596985     0.428012433     0.499985569    0.00000
C225               C     0.016189472     0.392878356     0.499985693    0.00000
C226               C     0.982561816     0.393103634     0.499984871    0.00000
C227               C     0.970626135     0.428400790     0.499984152    0.00000
C228               C     0.911943385     0.588637412     0.499987222    0.00000
C229               C     0.918818429     0.620264955     0.433317789    0.00000
C230               C     0.880379862     0.581503155     0.566623818    0.00000
C231               C     0.894139075     0.644756284     0.433370876    0.00000
C232               C     0.855682825     0.605991733     0.566568654    0.00000
C233               C     0.862557962     0.637615824     0.499974047    0.00000
C234               C     0.088637412     0.588056615     0.499987218    0.00000
C235               C     0.081502433     0.619620853     0.566612404    0.00000
C236               C     0.120265676     0.581180855     0.433329197    0.00000
C237               C     0.105991012     0.644317890     0.566557238    0.00000
C238               C     0.144757005     0.605860210     0.433382289    0.00000
C239               C     0.137615824     0.637442038     0.499974043    0.00000
C240               C     0.911362588     0.411943385     0.499987223    0.00000
C241               C     0.918496845     0.380379862     0.566623818    0.00000
C242               C     0.879735045     0.418818429     0.433317791    0.00000
C243               C     0.894008267     0.355682825     0.566568655    0.00000
C244               C     0.855243716     0.394139075     0.433370878    0.00000
C245               C     0.862384176     0.362557962     0.499974049    0.00000
C246               C     0.088056615     0.411362588     0.499987220    0.00000
C247               C     0.119620853     0.418497567     0.566612405    0.00000
C248               C     0.081180855     0.379734323     0.433329200    0.00000
C249               C     0.144317890     0.394008988     0.566557239    0.00000
C250               C     0.105860210     0.355242995     0.433382292    0.00000
C251               C     0.137442038     0.362384176     0.499974045    0.00000
C252               C     0.181209046     0.597933321     0.356687184    0.00000
C253               C     0.187065127     0.618761935     0.190623630    0.00000
C254               C     0.207765380     0.606849773     0.494148660    0.00000
C255               C     0.183715842     0.560594697     0.311819232    0.00000
C256               C     0.097933321     0.318790953     0.356687188    0.00000
C257               C     0.073435376     0.300666602     0.478957475    0.00000
C258               C     0.082255873     0.322147060     0.174026952    0.00000
C259               C     0.130515153     0.298639988     0.343607119    0.00000
C260               C     0.818792505     0.402065141     0.356662623    0.00000
C261               C     0.801907139     0.369296751     0.300510491    0.00000
C262               C     0.797566119     0.419144152     0.498298435    0.00000
C263               C     0.821985842     0.425347288     0.197696319    0.00000
C264               C     0.902065141     0.681207495     0.356662620    0.00000
C265               C     0.872819695     0.692791376     0.241415926    0.00000
C266               C     0.906815020     0.705902344     0.508560167    0.00000
C267               C     0.934153475     0.679847180     0.246529138    0.00000
C268               C     0.320658150     0.310014628     0.499697342    0.00000
C269               C     0.286646221     0.310701709     0.499068685    0.00000
C270               C     0.267759406     0.280383628     0.499159986    0.00000
C271               C     0.285186616     0.249319253     0.499159986    0.00000
C272               C     0.320904933     0.249634819     0.499068685    0.00000
C273               C     0.338046651     0.279019252     0.499697342    0.00000
C274               C     0.232879835     0.280517062     0.499162623    0.00000
C275               C     0.267120165     0.219482938     0.499162623    0.00000
C276               C     0.232240594     0.219616372     0.499159986    0.00000
C277               C     0.214813384     0.250680747     0.499159986    0.00000
C278               C     0.179095067     0.250365181     0.499068685    0.00000
C279               C     0.161953349     0.220980748     0.499697342    0.00000
C280               C     0.179341850     0.189985372     0.499697342    0.00000
C281               C     0.213353779     0.189298291     0.499068685    0.00000
C282               C     0.689985372     0.320658150     0.499697342    0.00000
C283               C     0.689298291     0.286646221     0.499068685    0.00000
C284               C     0.719616372     0.267759406     0.499159986    0.00000
C285               C     0.750680747     0.285186616     0.499159986    0.00000
C286               C     0.750365181     0.320904933     0.499068685    0.00000
C287               C     0.720980748     0.338046651     0.499697342    0.00000
C288               C     0.719482938     0.232879835     0.499162623    0.00000
C289               C     0.780517062     0.267120165     0.499162623    0.00000
C290               C     0.780383628     0.232240594     0.499159986    0.00000
C291               C     0.749319253     0.214813384     0.499159986    0.00000
C292               C     0.749634819     0.179095067     0.499068685    0.00000
C293               C     0.779019252     0.161953349     0.499697342    0.00000
C294               C     0.810014628     0.179341850     0.499697342    0.00000
C295               C     0.810701709     0.213353779     0.499068685    0.00000
C296               C     0.820658150     0.810014628     0.499697342    0.00000
C297               C     0.786646221     0.810701709     0.499068685    0.00000
C298               C     0.767759406     0.780383628     0.499159986    0.00000
C299               C     0.785186616     0.749319253     0.499159986    0.00000
C300               C     0.820904933     0.749634819     0.499068685    0.00000
C301               C     0.838046651     0.779019252     0.499697342    0.00000
C302               C     0.732879835     0.780517062     0.499162623    0.00000
C303               C     0.767120165     0.719482938     0.499162623    0.00000
C304               C     0.732240594     0.719616372     0.499159986    0.00000
C305               C     0.714813384     0.750680747     0.499159986    0.00000
C306               C     0.679095067     0.750365181     0.499068685    0.00000
C307               C     0.661953349     0.720980748     0.499697342    0.00000
C308               C     0.679341850     0.689985372     0.499697342    0.00000
C309               C     0.713353779     0.689298291     0.499068685    0.00000
C310               C     0.189985372     0.820658150     0.499697342    0.00000
C311               C     0.189298291     0.786646221     0.499068685    0.00000
C312               C     0.219616372     0.767759406     0.499159986    0.00000
C313               C     0.250680747     0.785186616     0.499159986    0.00000
C314               C     0.250365181     0.820904933     0.499068685    0.00000
C315               C     0.220980748     0.838046651     0.499697342    0.00000
C316               C     0.219482938     0.732879835     0.499162623    0.00000
C317               C     0.280517062     0.767120165     0.499162623    0.00000
C318               C     0.280383628     0.732240594     0.499159986    0.00000
C319               C     0.249319253     0.714813384     0.499159986    0.00000
C320               C     0.249634819     0.679095067     0.499068685    0.00000
C321               C     0.279019252     0.661953349     0.499697342    0.00000
C322               C     0.310014628     0.679341850     0.499697342    0.00000
C323               C     0.310701709     0.713353779     0.499068685    0.00000
Br324              Br     0.290474625     0.177853113     0.499121187    0.00000
Br325              Br     0.209525375     0.322146887     0.499121187    0.00000
Br326              Br     0.822146887     0.290474625     0.499121187    0.00000
Br327              Br     0.677853113     0.209525375     0.499121187    0.00000
Br328              Br     0.790474625     0.677853113     0.499121187    0.00000
Br329              Br     0.709525375     0.822146887     0.499121187    0.00000
Br330              Br     0.322146887     0.790474625     0.499121187    0.00000
Br331              Br     0.177853113     0.709525375     0.499121187    0.00000
N332               N     0.500254121     0.051743295     0.499984620    0.00000
N333               N     0.551743295     0.999745879     0.499984619    0.00000
N334               N     0.448256705     0.000254121     0.499984621    0.00000
N335               N     0.499745879     0.948256705     0.499984621    0.00000
N336               N     0.000254121     0.551743295     0.499984620    0.00000
N337               N     0.051743295     0.499745879     0.499984619    0.00000
N338               N     0.948256705     0.500254121     0.499984621    0.00000
N339               N     0.999745879     0.448256705     0.499984621    0.00000

loop_
_geom_bond_atom_site_label_1
_geom_bond_atom_site_label_2
_geom_bond_distance
_geom_bond_site_symmetry_2
_ccdc_geom_bond_type
B0         C268       1.35400  .  S
B1         C280       1.35400  .  S
B2         C282       1.35400  .  S
B3         C294       1.35400  .  S
B4         C296       1.35400  .  S
B5         C308       1.35400  .  S
B6         C310       1.35400  .  S
B7         C322       1.35400  .  S
H8         N332       1.00000  .  S
H9         N335       1.00000  .  S
H10        C193       1.07000  .  S
H11        C193       1.07000  .  S
H12        C193       1.07000  .  S
H13        C194       1.07000  .  S
H14        C194       1.07000  .  S
H15        C194       1.07000  .  S
H16        C195       1.07000  .  S
H17        C195       1.07000  .  S
H18        C195       1.07000  .  S
H19        C197       1.07000  .  S
H20        C197       1.07000  .  S
H21        C197       1.07000  .  S
H22        C198       1.07000  .  S
H23        C198       1.07000  .  S
H24        C198       1.07000  .  S
H25        C199       1.07000  .  S
H26        C199       1.07000  .  S
H27        C199       1.07000  .  S
H28        C201       1.07000  .  S
H29        C201       1.07000  .  S
H30        C201       1.07000  .  S
H31        C202       1.07000  .  S
H32        C202       1.07000  .  S
H33        C202       1.07000  .  S
H34        C203       1.07000  .  S
H35        C203       1.07000  .  S
H36        C203       1.07000  .  S
H37        C205       1.07000  .  S
H38        C205       1.07000  .  S
H39        C205       1.07000  .  S
H40        C206       1.07000  .  S
H41        C206       1.07000  .  S
H42        C206       1.07000  .  S
H43        C207       1.07000  .  S
H44        C207       1.07000  .  S
H45        C207       1.07000  .  S
H46        C189       1.09920  .  S
H47        C183       1.09920  .  S
H48        C172       1.09920  .  S
H49        C177       1.09920  .  S
H50        C176       1.09920  .  S
H51        C188       1.09920  .  S
H52        C182       1.09920  .  S
H53        C169       1.09920  .  S
H54        C175       1.09920  .  S
H55        C187       1.09920  .  S
H56        C181       1.09920  .  S
H57        C170       1.09920  .  S
H58        C165       1.09188  .  S
H59        C150       1.09188  .  S
H60        C160       1.09188  .  S
H61        C155       1.09188  .  S
H62        C166       1.10115  .  S
H63        C156       1.10115  .  S
H64        C149       1.10115  .  S
H65        C159       1.10115  .  S
H66        N336       1.00000  .  S
H67        N339       1.00000  .  S
H68        C253       1.07000  .  S
H69        C253       1.07000  .  S
H70        C253       1.07000  .  S
H71        C254       1.07000  .  S
H72        C254       1.07000  .  S
H73        C254       1.07000  .  S
H74        C255       1.07000  .  S
H75        C255       1.07000  .  S
H76        C255       1.07000  .  S
H77        C257       1.07000  .  S
H78        C257       1.07000  .  S
H79        C257       1.07000  .  S
H80        C258       1.07000  .  S
H81        C258       1.07000  .  S
H82        C258       1.07000  .  S
H83        C259       1.07000  .  S
H84        C259       1.07000  .  S
H85        C259       1.07000  .  S
H86        C261       1.07000  .  S
H87        C261       1.07000  .  S
H88        C261       1.07000  .  S
H89        C262       1.07000  .  S
H90        C262       1.07000  .  S
H91        C262       1.07000  .  S
H92        C263       1.07000  .  S
H93        C263       1.07000  .  S
H94        C263       1.07000  .  S
H95        C265       1.07000  .  S
H96        C265       1.07000  .  S
H97        C265       1.07000  .  S
H98        C266       1.07000  .  S
H99        C266       1.07000  .  S
H100       C266       1.07000  .  S
H101       C267       1.07000  .  S
H102       C267       1.07000  .  S
H103       C267       1.07000  .  S
H104       C249       1.09920  .  S
H105       C243       1.09920  .  S
H106       C232       1.09920  .  S
H107       C237       1.09920  .  S
H108       C236       1.09920  .  S
H109       C248       1.09920  .  S
H110       C242       1.09920  .  S
H111       C229       1.09920  .  S
H112       C235       1.09920  .  S
H113       C247       1.09920  .  S
H114       C241       1.09920  .  S
H115       C230       1.09920  .  S
H116       C225       1.09188  .  S
H117       C210       1.09188  .  S
H118       C220       1.09188  .  S
H119       C215       1.09188  .  S
H120       C226       1.10115  .  S
H121       C216       1.10115  .  S
H122       C209       1.10115  .  S
H123       C219       1.10115  .  S
H124       C272       1.09920  .  S
H125       C278       1.09920  .  S
H126       C269       1.09920  .  S
H127       C281       1.09920  .  S
H128       C273       1.09920  .  S
H129       C279       1.09920  .  S
H130       C286       1.09920  .  S
H131       C292       1.09920  .  S
H132       C283       1.09920  .  S
H133       C295       1.09920  .  S
H134       C287       1.09920  .  S
H135       C293       1.09920  .  S
H136       C300       1.09920  .  S
H137       C306       1.09920  .  S
H138       C297       1.09920  .  S
H139       C309       1.09920  .  S
H140       C301       1.09920  .  S
H141       C307       1.09920  .  S
H142       C314       1.09920  .  S
H143       C320       1.09920  .  S
H144       C311       1.09920  .  S
H145       C323       1.09920  .  S
H146       C315       1.09920  .  S
H147       C321       1.09920  .  S
C148       N332       1.41380  .  S
C148       C153       1.36356  .  S
C148       C149       1.49465  .  S
C149       C150       1.34895  .  S
C149       C148       1.49465  .  S
C149       H64        1.10115  .  S
C150       C151       1.49465  .  S
C150       H59        1.09188  .  S
C150       C149       1.34895  .  S
C151       C152       1.35714  .  S
C151       C150       1.49465  .  S
C151       N332       1.41380  .  S
C152       C168       1.54000  .  S
C152       C158       1.36356  .  S
C152       C151       1.35714  .  S
C153       C174       1.54000  .  S
C153       C154       1.35714  .  S
C153       C148       1.36356  .  S
C154       N333       1.41380  .  S
C154       C155       1.49465  .  S
C154       C153       1.35714  .  S
C155       C156       1.34895  .  S
C155       C154       1.49465  .  S
C155       H61        1.09188  .  S
C156       C157       1.49465  .  S
C156       C155       1.34895  .  S
C156       H63        1.10115  .  S
C157       C162       1.36356  .  S
C157       C156       1.49465  .  S
C157       N333       1.41380  .  S
C158       N334       1.41380  .  S
C158       C159       1.49465  .  S
C158       C152       1.36356  .  S
C159       H65        1.10115  .  S
C159       C160       1.34895  .  S
C159       C158       1.49465  .  S
C160       H60        1.09188  .  S
C160       C161       1.49465  .  S
C160       C159       1.34895  .  S
C161       C163       1.35714  .  S
C161       C160       1.49465  .  S
C161       N334       1.41380  .  S
C162       C186       1.54000  .  S
C162       C164       1.35714  .  S
C162       C157       1.36356  .  S
C163       C180       1.54000  .  S
C163       C167       1.36356  .  S
C163       C161       1.35714  .  S
C164       N335       1.41380  .  S
C164       C165       1.49465  .  S
C164       C162       1.35714  .  S
C165       C166       1.34895  .  S
C165       H58        1.09188  .  S
C165       C164       1.49465  .  S
C166       H62        1.10115  .  S
C166       C167       1.49465  .  S
C166       C165       1.34895  .  S
C167       C166       1.49465  .  S
C167       C163       1.36356  .  S
C167       N335       1.41380  .  S
C168       C170       1.39483  .  S
C168       C169       1.39516  .  S
C168       C152       1.54000  .  S
C169       C168       1.39516  .  S
C169       C171       1.39471  .  S
C169       H53        1.09920  .  S
C170       C172       1.39514  .  S
C170       C168       1.39483  .  S
C170       H57        1.09920  .  S
C171       C173       1.39543  .  S
C171       C169       1.39471  .  S
C171       C204       1.60760  .  S
C172       H48        1.09920  .  S
C172       C173       1.39483  .  S
C172       C170       1.39514  .  S
C173       C172       1.39483  .  S
C173       C171       1.39543  .  S
C174       C176       1.39516  .  S
C174       C175       1.39483  .  S
C174       C153       1.54000  .  S
C175       C174       1.39483  .  S
C175       C177       1.39514  .  S
C175       H54        1.09920  .  S
C176       C174       1.39516  .  S
C176       C178       1.39471  .  S
C176       H50        1.09920  .  S
C177       C175       1.39514  .  S
C177       H49        1.09920  .  S
C177       C179       1.39483  .  S
C178       C176       1.39471  .  S
C178       C192       1.60760  .  S
C178       C179       1.39543  .  S
C179       C177       1.39483  .  S
C179       C178       1.39543  .  S
C180       C182       1.39516  .  S
C180       C181       1.39483  .  S
C180       C163       1.54000  .  S
C181       C183       1.39514  .  S
C181       C180       1.39483  .  S
C181       H56        1.09920  .  S
C182       C184       1.39471  .  S
C182       C180       1.39516  .  S
C182       H52        1.09920  .  S
C183       C185       1.39483  .  S
C183       H47        1.09920  .  S
C183       C181       1.39514  .  S
C184       C185       1.39543  .  S
C184       C200       1.60760  .  S
C184       C182       1.39471  .  S
C185       C184       1.39543  .  S
C185       C183       1.39483  .  S
C186       C188       1.39516  .  S
C186       C187       1.39483  .  S
C186       C162       1.54000  .  S
C187       C186       1.39483  .  S
C187       C189       1.39514  .  S
C187       H55        1.09920  .  S
C188       C190       1.39471  .  S
C188       C186       1.39516  .  S
C188       H51        1.09920  .  S
C189       C187       1.39514  .  S
C189       C191       1.39483  .  S
C189       H46        1.09920  .  S
C190       C196       1.60760  .  S
C190       C188       1.39471  .  S
C190       C191       1.39543  .  S
C191       C190       1.39543  .  S
C191       C189       1.39483  .  S
C192       C195       1.54000  .  S
C192       C194       1.54000  .  S
C192       C193       1.54000  .  S
C192       C178       1.60760  .  S
C193       C192       1.54000  .  S
C193       H11        1.07000  .  S
C193       H12        1.07000  .  S
C193       H10        1.07000  .  S
C194       C192       1.54000  .  S
C194       H14        1.07000  .  S
C194       H13        1.07000  .  S
C194       H15        1.07000  .  S
C195       C192       1.54000  .  S
C195       H18        1.07000  .  S
C195       H17        1.07000  .  S
C195       H16        1.07000  .  S
C196       C198       1.54000  .  S
C196       C197       1.54000  .  S
C196       C190       1.60760  .  S
C196       C199       1.54000  .  S
C197       C196       1.54000  .  S
C197       H21        1.07000  .  S
C197       H20        1.07000  .  S
C197       H19        1.07000  .  S
C198       C196       1.54000  .  S
C198       H24        1.07000  .  S
C198       H23        1.07000  .  S
C198       H22        1.07000  .  S
C199       C196       1.54000  .  S
C199       H27        1.07000  .  S
C199       H26        1.07000  .  S
C199       H25        1.07000  .  S
C200       C201       1.54000  .  S
C200       C203       1.54000  .  S
C200       C202       1.54000  .  S
C200       C184       1.60760  .  S
C201       H30        1.07000  .  S
C201       H28        1.07000  .  S
C201       C200       1.54000  .  S
C201       H29        1.07000  .  S
C202       C200       1.54000  .  S
C202       H33        1.07000  .  S
C202       H32        1.07000  .  S
C202       H31        1.07000  .  S
C203       C200       1.54000  .  S
C203       H36        1.07000  .  S
C203       H35        1.07000  .  S
C203       H34        1.07000  .  S
C204       C205       1.54000  .  S
C204       C207       1.54000  .  S
C204       C206       1.54000  .  S
C204       C171       1.60760  .  S
C205       H39        1.07000  .  S
C205       H37        1.07000  .  S
C205       C204       1.54000  .  S
C205       H38        1.07000  .  S
C206       C204       1.54000  .  S
C206       H42        1.07000  .  S
C206       H41        1.07000  .  S
C206       H40        1.07000  .  S
C207       C204       1.54000  .  S
C207       H45        1.07000  .  S
C207       H44        1.07000  .  S
C207       H43        1.07000  .  S
C208       N336       1.41380  .  S
C208       C213       1.36356  .  S
C208       C209       1.49465  .  S
C209       C210       1.34895  .  S
C209       C208       1.49465  .  S
C209       H122       1.10115  .  S
C210       C211       1.49465  .  S
C210       H117       1.09188  .  S
C210       C209       1.34895  .  S
C211       C212       1.35714  .  S
C211       C210       1.49465  .  S
C211       N336       1.41380  .  S
C212       C228       1.54000  .  S
C212       C218       1.36356  .  S
C212       C211       1.35714  .  S
C213       C234       1.54000  .  S
C213       C214       1.35714  .  S
C213       C208       1.36356  .  S
C214       N337       1.41380  .  S
C214       C215       1.49465  .  S
C214       C213       1.35714  .  S
C215       C216       1.34895  .  S
C215       C214       1.49465  .  S
C215       H119       1.09188  .  S
C216       C217       1.49465  .  S
C216       C215       1.34895  .  S
C216       H121       1.10115  .  S
C217       C222       1.36356  .  S
C217       C216       1.49465  .  S
C217       N337       1.41380  .  S
C218       N338       1.41380  .  S
C218       C219       1.49465  .  S
C218       C212       1.36356  .  S
C219       H123       1.10115  .  S
C219       C220       1.34895  .  S
C219       C218       1.49465  .  S
C220       H118       1.09188  .  S
C220       C221       1.49465  .  S
C220       C219       1.34895  .  S
C221       C223       1.35714  .  S
C221       C220       1.49465  .  S
C221       N338       1.41380  .  S
C222       C246       1.54000  .  S
C222       C224       1.35714  .  S
C222       C217       1.36356  .  S
C223       C240       1.54000  .  S
C223       C227       1.36356  .  S
C223       C221       1.35714  .  S
C224       N339       1.41380  .  S
C224       C225       1.49465  .  S
C224       C222       1.35714  .  S
C225       C226       1.34895  .  S
C225       H116       1.09188  .  S
C225       C224       1.49465  .  S
C226       H120       1.10115  .  S
C226       C227       1.49465  .  S
C226       C225       1.34895  .  S
C227       C226       1.49465  .  S
C227       C223       1.36356  .  S
C227       N339       1.41380  .  S
C228       C230       1.39483  .  S
C228       C229       1.39516  .  S
C228       C212       1.54000  .  S
C229       C228       1.39516  .  S
C229       C231       1.39471  .  S
C229       H111       1.09920  .  S
C230       C232       1.39514  .  S
C230       C228       1.39483  .  S
C230       H115       1.09920  .  S
C231       C233       1.39543  .  S
C231       C229       1.39471  .  S
C231       C264       1.60760  .  S
C232       H106       1.09920  .  S
C232       C233       1.39483  .  S
C232       C230       1.39514  .  S
C233       C232       1.39483  .  S
C233       C231       1.39543  .  S
C234       C236       1.39516  .  S
C234       C235       1.39483  .  S
C234       C213       1.54000  .  S
C235       C234       1.39483  .  S
C235       C237       1.39514  .  S
C235       H112       1.09920  .  S
C236       C234       1.39516  .  S
C236       C238       1.39471  .  S
C236       H108       1.09920  .  S
C237       C235       1.39514  .  S
C237       H107       1.09920  .  S
C237       C239       1.39483  .  S
C238       C236       1.39471  .  S
C238       C252       1.60760  .  S
C238       C239       1.39543  .  S
C239       C237       1.39483  .  S
C239       C238       1.39543  .  S
C240       C242       1.39516  .  S
C240       C241       1.39483  .  S
C240       C223       1.54000  .  S
C241       C243       1.39514  .  S
C241       C240       1.39483  .  S
C241       H114       1.09920  .  S
C242       C244       1.39471  .  S
C242       C240       1.39516  .  S
C242       H110       1.09920  .  S
C243       C245       1.39483  .  S
C243       H105       1.09920  .  S
C243       C241       1.39514  .  S
C244       C245       1.39543  .  S
C244       C260       1.60760  .  S
C244       C242       1.39471  .  S
C245       C244       1.39543  .  S
C245       C243       1.39483  .  S
C246       C248       1.39516  .  S
C246       C247       1.39483  .  S
C246       C222       1.54000  .  S
C247       C246       1.39483  .  S
C247       C249       1.39514  .  S
C247       H113       1.09920  .  S
C248       C250       1.39471  .  S
C248       H109       1.09920  .  S
C248       C246       1.39516  .  S
C249       C247       1.39514  .  S
C249       C251       1.39483  .  S
C249       H104       1.09920  .  S
C250       C256       1.60760  .  S
C250       C248       1.39471  .  S
C250       C251       1.39543  .  S
C251       C250       1.39543  .  S
C251       C249       1.39483  .  S
C252       C255       1.54000  .  S
C252       C254       1.54000  .  S
C252       C253       1.54000  .  S
C252       C238       1.60760  .  S
C253       C252       1.54000  .  S
C253       H69        1.07000  .  S
C253       H70        1.07000  .  S
C253       H68        1.07000  .  S
C254       C252       1.54000  .  S
C254       H72        1.07000  .  S
C254       H71        1.07000  .  S
C254       H73        1.07000  .  S
C255       C252       1.54000  .  S
C255       H76        1.07000  .  S
C255       H75        1.07000  .  S
C255       H74        1.07000  .  S
C256       C258       1.54000  .  S
C256       C257       1.54000  .  S
C256       C250       1.60760  .  S
C256       C259       1.54000  .  S
C257       C256       1.54000  .  S
C257       H79        1.07000  .  S
C257       H78        1.07000  .  S
C257       H77        1.07000  .  S
C258       C256       1.54000  .  S
C258       H82        1.07000  .  S
C258       H81        1.07000  .  S
C258       H80        1.07000  .  S
C259       C256       1.54000  .  S
C259       H85        1.07000  .  S
C259       H84        1.07000  .  S
C259       H83        1.07000  .  S
C260       C261       1.54000  .  S
C260       C263       1.54000  .  S
C260       C262       1.54000  .  S
C260       C244       1.60760  .  S
C261       H88        1.07000  .  S
C261       H87        1.07000  .  S
C261       H86        1.07000  .  S
C261       C260       1.54000  .  S
C262       C260       1.54000  .  S
C262       H91        1.07000  .  S
C262       H90        1.07000  .  S
C262       H89        1.07000  .  S
C263       C260       1.54000  .  S
C263       H94        1.07000  .  S
C263       H93        1.07000  .  S
C263       H92        1.07000  .  S
C264       C267       1.54000  .  S
C264       C266       1.54000  .  S
C264       C265       1.54000  .  S
C264       C231       1.60760  .  S
C265       H97        1.07000  .  S
C265       H95        1.07000  .  S
C265       C264       1.54000  .  S
C265       H96        1.07000  .  S
C266       C264       1.54000  .  S
C266       H100       1.07000  .  S
C266       H99        1.07000  .  S
C266       H98        1.07000  .  S
C267       C264       1.54000  .  S
C267       H103       1.07000  .  S
C267       H102       1.07000  .  S
C267       H101       1.07000  .  S
C268       C273       1.42562  .  S
C268       C269       1.36462  .  S
C268       B0         1.35400  .  S
C269       C270       1.43284  .  S
C269       C268       1.36462  .  S
C269       H126       1.09920  .  S
C270       C274       1.39915  .  S
C270       C271       1.42880  .  S
C270       C269       1.43284  .  S
C271       C275       1.39915  .  S
C271       C272       1.43284  .  S
C271       C270       1.42880  .  S
C272       C271       1.43284  .  S
C272       H124       1.09920  .  S
C272       C273       1.36462  .  S
C273       C272       1.36462  .  S
C273       C268       1.42562  .  S
C273       H128       1.09920  .  S
C274       Br325      1.91475  .  S
C274       C277       1.39915  .  S
C274       C270       1.39915  .  S
C275       C276       1.39915  .  S
C275       Br324      1.91475  .  S
C275       C271       1.39915  .  S
C276       C281       1.43284  .  S
C276       C277       1.42880  .  S
C276       C275       1.39915  .  S
C277       C276       1.42880  .  S
C277       C278       1.43284  .  S
C277       C274       1.39915  .  S
C278       C279       1.36462  .  S
C278       C277       1.43284  .  S
C278       H125       1.09920  .  S
C279       C280       1.42562  .  S
C279       H129       1.09920  .  S
C279       C278       1.36462  .  S
C280       C281       1.36462  .  S
C280       C279       1.42562  .  S
C280       B1         1.35400  .  S
C281       C280       1.36462  .  S
C281       C276       1.43284  .  S
C281       H127       1.09920  .  S
C282       C287       1.42562  .  S
C282       C283       1.36462  .  S
C282       B2         1.35400  .  S
C283       C284       1.43284  .  S
C283       C282       1.36462  .  S
C283       H132       1.09920  .  S
C284       C288       1.39915  .  S
C284       C283       1.43284  .  S
C284       C285       1.42880  .  S
C285       C284       1.42880  .  S
C285       C289       1.39915  .  S
C285       C286       1.43284  .  S
C286       C287       1.36462  .  S
C286       C285       1.43284  .  S
C286       H130       1.09920  .  S
C287       C282       1.42562  .  S
C287       H134       1.09920  .  S
C287       C286       1.36462  .  S
C288       Br327      1.91475  .  S
C288       C284       1.39915  .  S
C288       C291       1.39915  .  S
C289       C290       1.39915  .  S
C289       Br326      1.91475  .  S
C289       C285       1.39915  .  S
C290       C295       1.43284  .  S
C290       C291       1.42880  .  S
C290       C289       1.39915  .  S
C291       C288       1.39915  .  S
C291       C292       1.43284  .  S
C291       C290       1.42880  .  S
C292       H131       1.09920  .  S
C292       C293       1.36462  .  S
C292       C291       1.43284  .  S
C293       C294       1.42562  .  S
C293       C292       1.36462  .  S
C293       H135       1.09920  .  S
C294       C295       1.36462  .  S
C294       C293       1.42562  .  S
C294       B3         1.35400  .  S
C295       C294       1.36462  .  S
C295       C290       1.43284  .  S
C295       H133       1.09920  .  S
C296       C301       1.42562  .  S
C296       C297       1.36462  .  S
C296       B4         1.35400  .  S
C297       C298       1.43284  .  S
C297       C296       1.36462  .  S
C297       H138       1.09920  .  S
C298       C302       1.39915  .  S
C298       C299       1.42880  .  S
C298       C297       1.43284  .  S
C299       C303       1.39915  .  S
C299       C300       1.43284  .  S
C299       C298       1.42880  .  S
C300       H136       1.09920  .  S
C300       C301       1.36462  .  S
C300       C299       1.43284  .  S
C301       C300       1.36462  .  S
C301       C296       1.42562  .  S
C301       H140       1.09920  .  S
C302       Br329      1.91475  .  S
C302       C305       1.39915  .  S
C302       C298       1.39915  .  S
C303       C304       1.39915  .  S
C303       Br328      1.91475  .  S
C303       C299       1.39915  .  S
C304       C309       1.43284  .  S
C304       C305       1.42880  .  S
C304       C303       1.39915  .  S
C305       C304       1.42880  .  S
C305       C306       1.43284  .  S
C305       C302       1.39915  .  S
C306       C307       1.36462  .  S
C306       C305       1.43284  .  S
C306       H137       1.09920  .  S
C307       C308       1.42562  .  S
C307       H141       1.09920  .  S
C307       C306       1.36462  .  S
C308       C309       1.36462  .  S
C308       C307       1.42562  .  S
C308       B5         1.35400  .  S
C309       C308       1.36462  .  S
C309       C304       1.43284  .  S
C309       H139       1.09920  .  S
C310       C315       1.42562  .  S
C310       C311       1.36462  .  S
C310       B6         1.35400  .  S
C311       C312       1.43284  .  S
C311       C310       1.36462  .  S
C311       H144       1.09920  .  S
C312       C316       1.39915  .  S
C312       C311       1.43284  .  S
C312       C313       1.42880  .  S
C313       C312       1.42880  .  S
C313       C317       1.39915  .  S
C313       C314       1.43284  .  S
C314       C315       1.36462  .  S
C314       C313       1.43284  .  S
C314       H142       1.09920  .  S
C315       C310       1.42562  .  S
C315       H146       1.09920  .  S
C315       C314       1.36462  .  S
C316       Br331      1.91475  .  S
C316       C319       1.39915  .  S
C316       C312       1.39915  .  S
C317       C318       1.39915  .  S
C317       Br330      1.91475  .  S
C317       C313       1.39915  .  S
C318       C319       1.42880  .  S
C318       C323       1.43284  .  S
C318       C317       1.39915  .  S
C319       C316       1.39915  .  S
C319       C320       1.43284  .  S
C319       C318       1.42880  .  S
C320       C319       1.43284  .  S
C320       H143       1.09920  .  S
C320       C321       1.36462  .  S
C321       C322       1.42562  .  S
C321       C320       1.36462  .  S
C321       H147       1.09920  .  S
C322       C323       1.36462  .  S
C322       C321       1.42562  .  S
C322       B7         1.35400  .  S
C323       C322       1.36462  .  S
C323       C318       1.43284  .  S
C323       H145       1.09920  .  S
Br324      C275       1.91475  .  S
Br325      C274       1.91475  .  S
Br326      C289       1.91475  .  S
Br327      C288       1.91475  .  S
Br328      C303       1.91475  .  S
Br329      C302       1.91475  .  S
Br330      C317       1.91475  .  S
Br331      C316       1.91475  .  S
N332       C151       1.41380  .  S
N332       C148       1.41380  .  S
N332       H8         1.00000  .  S
N333       C157       1.41380  .  S
N333       C154       1.41380  .  S
N334       C161       1.41380  .  S
N334       C158       1.41380  .  S
N335       C167       1.41380  .  S
N335       C164       1.41380  .  S
N335       H9         1.00000  .  S
N336       C211       1.41380  .  S
N336       C208       1.41380  .  S
N336       H66        1.00000  .  S
N337       C217       1.41380  .  S
N337       C214       1.41380  .  S
N338       C221       1.41380  .  S
N338       C218       1.41380  .  S
N339       C227       1.41380  .  S
N339       C224       1.41380  .  S
N339       H67        1.00000  .  S
