data_S4_PORP_NH2_I_H-L2_TPDI_CHO_DMPE_H_H_H_H-SQL_A-AA

_audit_creation_date     2025-09-12
_audit_creation_method   pyCOFBuilder

_chemical_name_common                  'S4_PORP_NH2_I_H-L2_TPDI_CHO_DMPE_H_H_H_H-SQL_A-AA'
_cell_length_a                           36.330793
_cell_length_b                           36.807751
_cell_length_c                            8.159247
_cell_angle_alpha                        90.00
_cell_angle_beta                         90.00
_cell_angle_gamma                        90.00
_space_group_name_H-M_alt               'P 1'
_space_group_IT_number                  1

loop_
_symmetry_equiv_pos_as_xyz
   'x, y, z'

loop_
   _atom_site_label
   _atom_site_type_symbol
   _atom_site_fract_x
   _atom_site_fract_y
   _atom_site_fract_z
   _atom_site_charge
H0                 H     0.470376071     0.999919863     0.500000000    0.00000
H1                 H     0.529251858     0.000079130     0.500000000    0.00000
H2                 H     0.640969687     0.037244828     0.500000000    0.00000
H3                 H     0.357706992     0.962532570     0.500000000    0.00000
H4                 H     0.537394975     0.859021534     0.500000000    0.00000
H5                 H     0.460945481     0.139768187     0.500000000    0.00000
H6                 H     0.970376071     0.499919863     0.500000000    0.00000
H7                 H     0.029251858     0.500079130     0.500000000    0.00000
H8                 H     0.140969687     0.537244828     0.500000000    0.00000
H9                 H     0.857706992     0.462532570     0.500000000    0.00000
H10                H     0.037394975     0.359021534     0.500000000    0.00000
H11                H     0.960945481     0.639768187     0.500000000    0.00000
H12                H     0.362644744     0.441019983     0.500000000    0.00000
H13                H     0.137355256     0.058980017     0.500000000    0.00000
H14                H     0.274169221     0.429917250     0.745185650    0.00000
H15                H     0.231574195     0.481385005     0.542308275    0.00000
H16                H     0.302424395     0.540151755     0.528562926    0.00000
H17                H     0.336852822     0.519356675     0.407091038    0.00000
H18                H     0.330460437     0.505327500     0.611656282    0.00000
H19                H     0.288161713     0.503247192     0.187606645    0.00000
H20                H     0.253570894     0.524052929     0.308140046    0.00000
H21                H     0.248622220     0.478376362     0.243183008    0.00000
H22                H     0.240527600     0.418846699     0.593476678    0.00000
H23                H     0.264744511     0.492298812     0.691714647    0.00000
H24                H     0.225441753     0.069954496     0.745801509    0.00000
H25                H     0.268357641     0.018592523     0.543720817    0.00000
H26                H     0.197531481     0.959833698     0.527125062    0.00000
H27                H     0.163296227     0.980692464     0.404795942    0.00000
H28                H     0.169364170     0.994614677     0.609705519    0.00000
H29                H     0.212333793     0.996916168     0.187018685    0.00000
H30                H     0.246732924     0.976047234     0.308414333    0.00000
H31                H     0.251784024     0.021757569     0.244100194    0.00000
H32                H     0.259322849     0.081103996     0.595271397    0.00000
H33                H     0.234951486     0.007600964     0.691964867    0.00000
H34                H     0.390591995     0.339826622     0.500000000    0.00000
H35                H     0.109408005     0.160173378     0.500000000    0.00000
H36                H     0.253568952     0.363767902     0.500000000    0.00000
H37                H     0.246431048     0.136232098     0.500000000    0.00000
H38                H     0.370383062     0.264531777     0.500000000    0.00000
H39                H     0.129616938     0.235468223     0.500000000    0.00000
H40                H     0.307617491     0.198794014     0.500000000    0.00000
H41                H     0.192382509     0.301205986     0.500000000    0.00000
H42                H     0.557957844     0.363666916     0.500000000    0.00000
H43                H     0.942042156     0.136333084     0.500000000    0.00000
H44                H     0.568051479     0.276200492     0.745185650    0.00000
H45                H     0.515356954     0.234832236     0.542308275    0.00000
H46                H     0.456747796     0.305524844     0.528562926    0.00000
H47                H     0.478263104     0.339233044     0.407091038    0.00000
H48                H     0.492391878     0.332741060     0.611656282    0.00000
H49                H     0.493947656     0.290966866     0.187606645    0.00000
H50                H     0.472419435     0.257098530     0.308140046    0.00000
H51                H     0.518627176     0.251618681     0.243183008    0.00000
H52                H     0.578827657     0.242853244     0.593476678    0.00000
H53                H     0.504733417     0.267712282     0.691714647    0.00000
H54                H     0.932073375     0.223413882     0.745801509    0.00000
H55                H     0.984664923     0.265100196     0.543720817    0.00000
H56                H     0.043266365     0.194431418     0.527125062    0.00000
H57                H     0.021689061     0.160914702     0.404795942    0.00000
H58                H     0.007664413     0.167085081     0.609705519    0.00000
H59                H     0.005893317     0.209524308     0.187018685    0.00000
H60                H     0.027483058     0.243202631     0.308414333    0.00000
H61                H     0.981242444     0.248784011     0.244100194    0.00000
H62                H     0.921220340     0.256998512     0.595271397    0.00000
H63                H     0.995364150     0.231986373     0.691964867    0.00000
H64                H     0.660835462     0.389929911     0.500000000    0.00000
H65                H     0.839164538     0.110070089     0.500000000    0.00000
H66                H     0.634794879     0.255006170     0.500000000    0.00000
H67                H     0.865205121     0.244993830     0.500000000    0.00000
H68                H     0.736848739     0.369002546     0.500000000    0.00000
H69                H     0.763151261     0.130997454     0.500000000    0.00000
H70                H     0.802625266     0.306198211     0.500000000    0.00000
H71                H     0.697374734     0.193801789     0.500000000    0.00000
H72                H     0.862644744     0.941019983     0.500000000    0.00000
H73                H     0.637355256     0.558980017     0.500000000    0.00000
H74                H     0.774169221     0.929917250     0.745185650    0.00000
H75                H     0.731574195     0.981385005     0.542308275    0.00000
H76                H     0.802424395     0.040151755     0.528562926    0.00000
H77                H     0.836852822     0.019356675     0.407091038    0.00000
H78                H     0.830460437     0.005327500     0.611656282    0.00000
H79                H     0.788161713     0.003247192     0.187606645    0.00000
H80                H     0.753570894     0.024052929     0.308140046    0.00000
H81                H     0.748622220     0.978376362     0.243183008    0.00000
H82                H     0.740527600     0.918846699     0.593476678    0.00000
H83                H     0.764744511     0.992298812     0.691714647    0.00000
H84                H     0.725441753     0.569954496     0.745801509    0.00000
H85                H     0.768357641     0.518592523     0.543720817    0.00000
H86                H     0.697531481     0.459833698     0.527125062    0.00000
H87                H     0.663296227     0.480692464     0.404795942    0.00000
H88                H     0.669364170     0.494614677     0.609705519    0.00000
H89                H     0.712333793     0.496916168     0.187018685    0.00000
H90                H     0.746732924     0.476047234     0.308414333    0.00000
H91                H     0.751784024     0.521757569     0.244100194    0.00000
H92                H     0.759322849     0.581103996     0.595271397    0.00000
H93                H     0.734951486     0.507600964     0.691964867    0.00000
H94                H     0.890591995     0.839826622     0.500000000    0.00000
H95                H     0.609408005     0.660173378     0.500000000    0.00000
H96                H     0.753568952     0.863767902     0.500000000    0.00000
H97                H     0.746431048     0.636232098     0.500000000    0.00000
H98                H     0.870383062     0.764531777     0.500000000    0.00000
H99                H     0.629616938     0.735468223     0.500000000    0.00000
H100               H     0.807617491     0.698794014     0.500000000    0.00000
H101               H     0.692382509     0.801205986     0.500000000    0.00000
H102               H     0.057957844     0.863666916     0.500000000    0.00000
H103               H     0.442042156     0.636333084     0.500000000    0.00000
H104               H     0.068051479     0.776200492     0.745185650    0.00000
H105               H     0.015356954     0.734832236     0.542308275    0.00000
H106               H     0.956747796     0.805524844     0.528562926    0.00000
H107               H     0.978263104     0.839233044     0.407091038    0.00000
H108               H     0.992391878     0.832741060     0.611656282    0.00000
H109               H     0.993947656     0.790966866     0.187606645    0.00000
H110               H     0.972419435     0.757098530     0.308140046    0.00000
H111               H     0.018627176     0.751618681     0.243183008    0.00000
H112               H     0.078827657     0.742853244     0.593476678    0.00000
H113               H     0.004733417     0.767712282     0.691714647    0.00000
H114               H     0.432073375     0.723413882     0.745801509    0.00000
H115               H     0.484664923     0.765100196     0.543720817    0.00000
H116               H     0.543266365     0.694431418     0.527125062    0.00000
H117               H     0.521689061     0.660914702     0.404795942    0.00000
H118               H     0.507664413     0.667085081     0.609705519    0.00000
H119               H     0.505893317     0.709524308     0.187018685    0.00000
H120               H     0.527483058     0.743202631     0.308414333    0.00000
H121               H     0.481242444     0.748784011     0.244100194    0.00000
H122               H     0.421220340     0.756998512     0.595271397    0.00000
H123               H     0.495364150     0.731986373     0.691964867    0.00000
H124               H     0.160835462     0.889929911     0.500000000    0.00000
H125               H     0.339164538     0.610070089     0.500000000    0.00000
H126               H     0.134794879     0.755006170     0.500000000    0.00000
H127               H     0.365205121     0.744993830     0.500000000    0.00000
H128               H     0.236848739     0.869002546     0.500000000    0.00000
H129               H     0.263151261     0.630997454     0.500000000    0.00000
H130               H     0.302625266     0.806198211     0.500000000    0.00000
H131               H     0.197374734     0.693801789     0.500000000    0.00000
C132               C     0.419941005     0.031372868     0.500000000    0.00000
C133               C     0.381094936     0.018002706     0.500000000    0.00000
C134               C     0.381196695     0.981354261     0.500000000    0.00000
C135               C     0.420116428     0.968194467     0.500000000    0.00000
C136               C     0.431915709     0.933211117     0.500000000    0.00000
C137               C     0.431545839     0.066419529     0.500000000    0.00000
C138               C     0.469394291     0.077960103     0.500000000    0.00000
C139               C     0.480629403     0.117089237     0.500000000    0.00000
C140               C     0.517867213     0.117736981     0.500000000    0.00000
C141               C     0.530912692     0.079300174     0.500000000    0.00000
C142               C     0.469827679     0.921875484     0.500000000    0.00000
C143               C     0.481279915     0.882807723     0.500000000    0.00000
C144               C     0.518520763     0.882361453     0.500000000    0.00000
C145               C     0.531352598     0.920868262     0.500000000    0.00000
C146               C     0.566325618     0.067998659     0.500000000    0.00000
C147               C     0.566702232     0.932361199     0.500000000    0.00000
C148               C     0.579449669     0.031137291     0.500000000    0.00000
C149               C     0.616737463     0.019363722     0.500000000    0.00000
C150               C     0.616843240     0.981268144     0.500000000    0.00000
C151               C     0.579621387     0.969293017     0.500000000    0.00000
C152               C     0.919941005     0.531372868     0.500000000    0.00000
C153               C     0.881094936     0.518002706     0.500000000    0.00000
C154               C     0.881196695     0.481354261     0.500000000    0.00000
C155               C     0.920116428     0.468194467     0.500000000    0.00000
C156               C     0.931915709     0.433211117     0.500000000    0.00000
C157               C     0.931545839     0.566419529     0.500000000    0.00000
C158               C     0.969394291     0.577960103     0.500000000    0.00000
C159               C     0.980629403     0.617089237     0.500000000    0.00000
C160               C     0.017867213     0.617736981     0.500000000    0.00000
C161               C     0.030912692     0.579300174     0.500000000    0.00000
C162               C     0.969827679     0.421875484     0.500000000    0.00000
C163               C     0.981279915     0.382807723     0.500000000    0.00000
C164               C     0.018520763     0.382361453     0.500000000    0.00000
C165               C     0.031352598     0.420868262     0.500000000    0.00000
C166               C     0.066325618     0.567998659     0.500000000    0.00000
C167               C     0.066702232     0.432361199     0.500000000    0.00000
C168               C     0.079449669     0.531137291     0.500000000    0.00000
C169               C     0.116737463     0.519363722     0.500000000    0.00000
C170               C     0.116843240     0.481268144     0.500000000    0.00000
C171               C     0.079621387     0.469293017     0.500000000    0.00000
C172               C     0.335925191     0.315605572     0.500000000    0.00000
C173               C     0.296703803     0.322751917     0.500000000    0.00000
C174               C     0.283386639     0.358706933     0.500000000    0.00000
C175               C     0.308525761     0.386953620     0.500000000    0.00000
C176               C     0.346974906     0.380071583     0.500000000    0.00000
C177               C     0.360794053     0.344999652     0.500000000    0.00000
C178               C     0.342859573     0.276932510     0.500000000    0.00000
C179               C     0.278732626     0.288513056     0.500000000    0.00000
C180               C     0.309262514     0.259665785     0.500000000    0.00000
C181               C     0.292640591     0.224741715     0.500000000    0.00000
C182               C     0.245360153     0.270857560     0.500000000    0.00000
C183               C     0.254639847     0.229142440     0.500000000    0.00000
C184               C     0.221267374     0.211486944     0.500000000    0.00000
C185               C     0.203296197     0.177248083     0.500000000    0.00000
C186               C     0.190737486     0.240334215     0.500000000    0.00000
C187               C     0.207359409     0.275258285     0.500000000    0.00000
C188               C     0.164074809     0.184394428     0.500000000    0.00000
C189               C     0.216613361     0.141293067     0.500000000    0.00000
C190               C     0.157140427     0.223067490     0.500000000    0.00000
C191               C     0.139205947     0.155000348     0.500000000    0.00000
C192               C     0.191474239     0.113046380     0.500000000    0.00000
C193               C     0.153025094     0.119928417     0.500000000    0.00000
C194               C     0.373702561     0.412894394     0.500000000    0.00000
C195               C     0.126297439     0.087105606     0.500000000    0.00000
C196               C     0.265590157     0.435015454     0.617312863    0.00000
C197               C     0.259932750     0.475701867     0.581743410    0.00000
C198               C     0.288307717     0.485653266     0.442077335    0.00000
C199               C     0.308406842     0.450447483     0.406052604    0.00000
C200               C     0.315896361     0.514273712     0.501301681    0.00000
C201               C     0.268385550     0.498606288     0.287179571    0.00000
C202               C     0.234223280     0.064923040     0.618147598    0.00000
C203               C     0.239937253     0.024255275     0.582324305    0.00000
C204               C     0.211784398     0.014377102     0.441664802    0.00000
C205               C     0.191742563     0.049601773     0.405383887    0.00000
C206               C     0.184102832     0.985726022     0.499716435    0.00000
C207               C     0.231951637     0.001504877     0.287259530    0.00000
C208               C     0.684659437     0.335660182     0.500000000    0.00000
C209               C     0.676908363     0.297043524     0.500000000    0.00000
C210               C     0.640310737     0.284368968     0.500000000    0.00000
C211               C     0.612023521     0.309548620     0.500000000    0.00000
C212               C     0.619496769     0.347406554     0.500000000    0.00000
C213               C     0.655206339     0.360588062     0.500000000    0.00000
C214               C     0.723927314     0.341999750     0.500000000    0.00000
C215               C     0.711359387     0.278860183     0.500000000    0.00000
C216               C     0.740981057     0.308615671     0.500000000    0.00000
C217               C     0.776143824     0.291755051     0.500000000    0.00000
C218               C     0.728809901     0.245692692     0.500000000    0.00000
C219               C     0.771190099     0.254307308     0.500000000    0.00000
C220               C     0.788640613     0.221139817     0.500000000    0.00000
C221               C     0.823091637     0.202956476     0.500000000    0.00000
C222               C     0.759018943     0.191384329     0.500000000    0.00000
C223               C     0.723856176     0.208244949     0.500000000    0.00000
C224               C     0.815340563     0.164339818     0.500000000    0.00000
C225               C     0.859689263     0.215631032     0.500000000    0.00000
C226               C     0.776072686     0.158000250     0.500000000    0.00000
C227               C     0.844793661     0.139411938     0.500000000    0.00000
C228               C     0.887976479     0.190451380     0.500000000    0.00000
C229               C     0.880503231     0.152593446     0.500000000    0.00000
C230               C     0.586594465     0.374213702     0.500000000    0.00000
C231               C     0.913405535     0.125786298     0.500000000    0.00000
C232               C     0.562774895     0.267799808     0.617312863    0.00000
C233               C     0.521484064     0.262746819     0.581743410    0.00000
C234               C     0.511772946     0.290881505     0.442077335    0.00000
C235               C     0.547700018     0.310259341     0.406052604    0.00000
C236               C     0.483139043     0.318483606     0.501301681    0.00000
C237               C     0.498391165     0.271388097     0.287179571    0.00000
C238               C     0.937284980     0.232015260     0.618147598    0.00000
C239               C     0.978557657     0.237124321     0.582324305    0.00000
C240               C     0.988197491     0.209209805     0.441664802    0.00000
C241               C     0.952252032     0.189888758     0.405383887    0.00000
C242               C     0.016861216     0.181515595     0.499716435    0.00000
C243               C     0.001500618     0.228946142     0.287259530    0.00000
C244               C     0.835925191     0.815605572     0.500000000    0.00000
C245               C     0.796703803     0.822751917     0.500000000    0.00000
C246               C     0.783386639     0.858706933     0.500000000    0.00000
C247               C     0.808525761     0.886953620     0.500000000    0.00000
C248               C     0.846974906     0.880071583     0.500000000    0.00000
C249               C     0.860794053     0.844999652     0.500000000    0.00000
C250               C     0.842859573     0.776932510     0.500000000    0.00000
C251               C     0.778732626     0.788513056     0.500000000    0.00000
C252               C     0.809262514     0.759665785     0.500000000    0.00000
C253               C     0.792640591     0.724741715     0.500000000    0.00000
C254               C     0.745360153     0.770857560     0.500000000    0.00000
C255               C     0.754639847     0.729142440     0.500000000    0.00000
C256               C     0.721267374     0.711486944     0.500000000    0.00000
C257               C     0.703296197     0.677248083     0.500000000    0.00000
C258               C     0.690737486     0.740334215     0.500000000    0.00000
C259               C     0.707359409     0.775258285     0.500000000    0.00000
C260               C     0.664074809     0.684394428     0.500000000    0.00000
C261               C     0.716613361     0.641293067     0.500000000    0.00000
C262               C     0.657140427     0.723067490     0.500000000    0.00000
C263               C     0.639205947     0.655000348     0.500000000    0.00000
C264               C     0.691474239     0.613046380     0.500000000    0.00000
C265               C     0.653025094     0.619928417     0.500000000    0.00000
C266               C     0.873702561     0.912894394     0.500000000    0.00000
C267               C     0.626297439     0.587105606     0.500000000    0.00000
C268               C     0.765590157     0.935015454     0.617312863    0.00000
C269               C     0.759932750     0.975701867     0.581743410    0.00000
C270               C     0.788307717     0.985653266     0.442077335    0.00000
C271               C     0.808406842     0.950447483     0.406052604    0.00000
C272               C     0.815896361     0.014273712     0.501301681    0.00000
C273               C     0.768385550     0.998606288     0.287179571    0.00000
C274               C     0.734223280     0.564923040     0.618147598    0.00000
C275               C     0.739937253     0.524255275     0.582324305    0.00000
C276               C     0.711784398     0.514377102     0.441664802    0.00000
C277               C     0.691742563     0.549601773     0.405383887    0.00000
C278               C     0.684102832     0.485726022     0.499716435    0.00000
C279               C     0.731951637     0.501504877     0.287259530    0.00000
C280               C     0.184659437     0.835660182     0.500000000    0.00000
C281               C     0.176908363     0.797043524     0.500000000    0.00000
C282               C     0.140310737     0.784368968     0.500000000    0.00000
C283               C     0.112023521     0.809548620     0.500000000    0.00000
C284               C     0.119496769     0.847406554     0.500000000    0.00000
C285               C     0.155206339     0.860588062     0.500000000    0.00000
C286               C     0.223927314     0.841999750     0.500000000    0.00000
C287               C     0.211359387     0.778860183     0.500000000    0.00000
C288               C     0.240981057     0.808615671     0.500000000    0.00000
C289               C     0.276143824     0.791755051     0.500000000    0.00000
C290               C     0.228809901     0.745692692     0.500000000    0.00000
C291               C     0.271190099     0.754307308     0.500000000    0.00000
C292               C     0.288640613     0.721139817     0.500000000    0.00000
C293               C     0.323091637     0.702956476     0.500000000    0.00000
C294               C     0.259018943     0.691384329     0.500000000    0.00000
C295               C     0.223856176     0.708244949     0.500000000    0.00000
C296               C     0.315340563     0.664339818     0.500000000    0.00000
C297               C     0.359689263     0.715631032     0.500000000    0.00000
C298               C     0.276072686     0.658000250     0.500000000    0.00000
C299               C     0.344793661     0.639411938     0.500000000    0.00000
C300               C     0.387976479     0.690451380     0.500000000    0.00000
C301               C     0.380503231     0.652593446     0.500000000    0.00000
C302               C     0.086594465     0.874213702     0.500000000    0.00000
C303               C     0.413405535     0.625786298     0.500000000    0.00000
C304               C     0.062774895     0.767799808     0.617312863    0.00000
C305               C     0.021484064     0.762746819     0.581743410    0.00000
C306               C     0.011772946     0.790881505     0.442077335    0.00000
C307               C     0.047700018     0.810259341     0.406052604    0.00000
C308               C     0.983139043     0.818483606     0.501301681    0.00000
C309               C     0.998391165     0.771388097     0.287179571    0.00000
C310               C     0.437284980     0.732015260     0.618147598    0.00000
C311               C     0.478557657     0.737124321     0.582324305    0.00000
C312               C     0.488197491     0.709209805     0.441664802    0.00000
C313               C     0.452252032     0.689888758     0.405383887    0.00000
C314               C     0.516861216     0.681515595     0.499716435    0.00000
C315               C     0.501500618     0.728946142     0.287259530    0.00000
I316               I     0.667859647     0.944051348     0.500000000    0.00000
I317               I     0.557169400     0.166888380     0.500000000    0.00000
I318               I     0.331624435     0.057200071     0.500000000    0.00000
I319               I     0.440272297     0.835033005     0.500000000    0.00000
I320               I     0.167859647     0.444051348     0.500000000    0.00000
I321               I     0.057169400     0.666888380     0.500000000    0.00000
I322               I     0.831624435     0.557200071     0.500000000    0.00000
I323               I     0.940272297     0.335033005     0.500000000    0.00000
N324               N     0.442166786     0.999843553     0.500000000    0.00000
N325               N     0.498842670     0.056226494     0.500000000    0.00000
N326               N     0.499154925     0.943768089     0.500000000    0.00000
N327               N     0.557310091     0.000155031     0.500000000    0.00000
N328               N     0.942166786     0.499843553     0.500000000    0.00000
N329               N     0.998842670     0.556226494     0.500000000    0.00000
N330               N     0.999154925     0.443768089     0.500000000    0.00000
N331               N     0.057310091     0.500155031     0.500000000    0.00000
N332               N     0.407704488     0.407704488     0.500000000    0.00000
N333               N     0.092295512     0.092295512     0.500000000    0.00000
N334               N     0.295881742     0.424318346     0.500000000    0.00000
N335               N     0.204118258     0.075681654     0.500000000    0.00000
N336               N     0.592295512     0.407704488     0.500000000    0.00000
N337               N     0.907704488     0.092295512     0.500000000    0.00000
N338               N     0.574006580     0.297556817     0.500000000    0.00000
N339               N     0.925993420     0.202443183     0.500000000    0.00000
N340               N     0.907704488     0.907704488     0.500000000    0.00000
N341               N     0.592295512     0.592295512     0.500000000    0.00000
N342               N     0.795881742     0.924318346     0.500000000    0.00000
N343               N     0.704118258     0.575681654     0.500000000    0.00000
N344               N     0.092295512     0.907704488     0.500000000    0.00000
N345               N     0.407704488     0.592295512     0.500000000    0.00000
N346               N     0.074006580     0.797556817     0.500000000    0.00000
N347               N     0.425993420     0.702443183     0.500000000    0.00000

loop_
_geom_bond_atom_site_label_1
_geom_bond_atom_site_label_2
_geom_bond_distance
_geom_bond_site_symmetry_2
_ccdc_geom_bond_type
H0         N324       1.02487  .  S
H1         N327       1.01938  .  S
H2         C149       1.09920  .  S
H3         C134       1.09920  .  S
H4         C144       1.09920  .  S
H5         C139       1.09920  .  S
H6         N328       1.02487  .  S
H7         N331       1.01938  .  S
H8         C169       1.09920  .  S
H9         C154       1.09920  .  S
H10        C164       1.09920  .  S
H11        C159       1.09920  .  S
H12        C194       1.11046  .  S
H13        C195       1.11046  .  S
H14        C196       1.10496  .  S
H15        C197       1.09945  .  S
H16        C200       1.09376  .  S
H17        C200       1.09798  .  S
H18        C200       1.09505  .  S
H19        C201       1.09793  .  S
H20        C201       1.09372  .  S
H21        C201       1.09493  .  S
H22        C196       1.10503  .  S
H23        C197       1.09949  .  S
H24        C202       1.10496  .  S
H25        C203       1.09945  .  S
H26        C206       1.09376  .  S
H27        C206       1.09798  .  S
H28        C206       1.09505  .  S
H29        C207       1.09793  .  S
H30        C207       1.09372  .  S
H31        C207       1.09493  .  S
H32        C202       1.10503  .  S
H33        C203       1.09949  .  S
H34        C177       1.09920  .  S
H35        C191       1.09920  .  S
H36        C174       1.09920  .  S
H37        C189       1.09920  .  S
H38        C178       1.09920  .  S
H39        C190       1.09920  .  S
H40        C181       1.09920  .  S
H41        C187       1.09920  .  S
H42        C230       1.11046  .  S
H43        C231       1.11046  .  S
H44        C232       1.10496  .  S
H45        C233       1.09945  .  S
H46        C236       1.09376  .  S
H47        C236       1.09798  .  S
H48        C236       1.09505  .  S
H49        C237       1.09793  .  S
H50        C237       1.09372  .  S
H51        C237       1.09493  .  S
H52        C232       1.10503  .  S
H53        C233       1.09949  .  S
H54        C238       1.10496  .  S
H55        C239       1.09945  .  S
H56        C242       1.09376  .  S
H57        C242       1.09798  .  S
H58        C242       1.09505  .  S
H59        C243       1.09793  .  S
H60        C243       1.09372  .  S
H61        C243       1.09493  .  S
H62        C238       1.10503  .  S
H63        C239       1.09949  .  S
H64        C213       1.09920  .  S
H65        C227       1.09920  .  S
H66        C210       1.09920  .  S
H67        C225       1.09920  .  S
H68        C214       1.09920  .  S
H69        C226       1.09920  .  S
H70        C217       1.09920  .  S
H71        C223       1.09920  .  S
H72        C266       1.11046  .  S
H73        C267       1.11046  .  S
H74        C268       1.10496  .  S
H75        C269       1.09945  .  S
H76        C272       1.09376  .  S
H77        C272       1.09798  .  S
H78        C272       1.09505  .  S
H79        C273       1.09793  .  S
H80        C273       1.09372  .  S
H81        C273       1.09493  .  S
H82        C268       1.10503  .  S
H83        C269       1.09949  .  S
H84        C274       1.10496  .  S
H85        C275       1.09945  .  S
H86        C278       1.09376  .  S
H87        C278       1.09798  .  S
H88        C278       1.09505  .  S
H89        C279       1.09793  .  S
H90        C279       1.09372  .  S
H91        C279       1.09493  .  S
H92        C274       1.10503  .  S
H93        C275       1.09949  .  S
H94        C249       1.09920  .  S
H95        C263       1.09920  .  S
H96        C246       1.09920  .  S
H97        C261       1.09920  .  S
H98        C250       1.09920  .  S
H99        C262       1.09920  .  S
H100       C253       1.09920  .  S
H101       C259       1.09920  .  S
H102       C302       1.11046  .  S
H103       C303       1.11046  .  S
H104       C304       1.10496  .  S
H105       C305       1.09945  .  S
H106       C308       1.09376  .  S
H107       C308       1.09798  .  S
H108       C308       1.09505  .  S
H109       C309       1.09793  .  S
H110       C309       1.09372  .  S
H111       C309       1.09493  .  S
H112       C304       1.10503  .  S
H113       C305       1.09949  .  S
H114       C310       1.10496  .  S
H115       C311       1.09945  .  S
H116       C314       1.09376  .  S
H117       C314       1.09798  .  S
H118       C314       1.09505  .  S
H119       C315       1.09793  .  S
H120       C315       1.09372  .  S
H121       C315       1.09493  .  S
H122       C310       1.10503  .  S
H123       C311       1.09949  .  S
H124       C285       1.09920  .  S
H125       C299       1.09920  .  S
H126       C282       1.09920  .  S
H127       C297       1.09920  .  S
H128       C286       1.09920  .  S
H129       C298       1.09920  .  S
H130       C289       1.09920  .  S
H131       C295       1.09920  .  S
C132       C133       1.49465  .  S
C132       N324       1.41380  .  S
C132       C137       1.35714  .  S
C133       C134       1.34895  .  S
C133       I318       2.30475  .  S
C133       C132       1.49465  .  S
C134       C133       1.34895  .  S
C134       H3         1.09920  .  S
C134       C135       1.49465  .  S
C135       C134       1.49465  .  S
C135       C136       1.35714  .  S
C135       N324       1.41380  .  S
C136       C142       1.43918  .  S
C136       C135       1.35714  .  S
C137       C138       1.43918  .  S
C137       C132       1.35714  .  S
C138       N325       1.33589  .  S
C138       C139       1.49698  .  S
C138       C137       1.43918  .  S
C139       C140       1.35309  .  S
C139       C138       1.49698  .  S
C139       H5         1.09920  .  S
C140       C141       1.49205  .  S
C140       C139       1.35309  .  S
C140       I317       2.30475  .  S
C141       N325       1.44181  .  S
C141       C140       1.49205  .  S
C141       C146       1.35216  .  S
C142       N326       1.33589  .  S
C142       C143       1.49698  .  S
C142       C136       1.43918  .  S
C143       I319       2.30475  .  S
C143       C144       1.35309  .  S
C143       C142       1.49698  .  S
C144       C145       1.49205  .  S
C144       C143       1.35309  .  S
C144       H4         1.09920  .  S
C145       N326       1.44181  .  S
C145       C144       1.49205  .  S
C145       C147       1.35216  .  S
C146       C141       1.35216  .  S
C146       C148       1.43813  .  S
C147       C145       1.35216  .  S
C147       C151       1.43813  .  S
C148       N327       1.39551  .  S
C148       C149       1.42232  .  S
C148       C146       1.43813  .  S
C149       C150       1.40222  .  S
C149       C148       1.42232  .  S
C149       H2         1.09920  .  S
C150       I316       2.30475  .  S
C150       C149       1.40222  .  S
C150       C151       1.42232  .  S
C151       C147       1.43813  .  S
C151       N327       1.39551  .  S
C151       C150       1.42232  .  S
C152       N328       1.41380  .  S
C152       C153       1.49465  .  S
C152       C157       1.35714  .  S
C153       C154       1.34895  .  S
C153       C152       1.49465  .  S
C153       I322       2.30475  .  S
C154       C155       1.49465  .  S
C154       C153       1.34895  .  S
C154       H9         1.09920  .  S
C155       N328       1.41380  .  S
C155       C156       1.35714  .  S
C155       C154       1.49465  .  S
C156       C155       1.35714  .  S
C156       C162       1.43918  .  S
C157       C152       1.35714  .  S
C157       C158       1.43918  .  S
C158       C157       1.43918  .  S
C158       N329       1.33589  .  S
C158       C159       1.49698  .  S
C159       H11        1.09920  .  S
C159       C160       1.35309  .  S
C159       C158       1.49698  .  S
C160       C159       1.35309  .  S
C160       I321       2.30475  .  S
C160       C161       1.49205  .  S
C161       N329       1.44181  .  S
C161       C166       1.35216  .  S
C161       C160       1.49205  .  S
C162       C156       1.43918  .  S
C162       C163       1.49698  .  S
C162       N330       1.33589  .  S
C163       I323       2.30475  .  S
C163       C164       1.35309  .  S
C163       C162       1.49698  .  S
C164       C163       1.35309  .  S
C164       H10        1.09920  .  S
C164       C165       1.49205  .  S
C165       N330       1.44181  .  S
C165       C164       1.49205  .  S
C165       C167       1.35216  .  S
C166       C168       1.43813  .  S
C166       C161       1.35216  .  S
C167       C171       1.43813  .  S
C167       C165       1.35216  .  S
C168       N331       1.39551  .  S
C168       C169       1.42232  .  S
C168       C166       1.43813  .  S
C169       C170       1.40222  .  S
C169       C168       1.42232  .  S
C169       H8         1.09920  .  S
C170       C171       1.42232  .  S
C170       C169       1.40222  .  S
C170       I320       2.30475  .  S
C171       N331       1.39551  .  S
C171       C170       1.42232  .  S
C171       C167       1.43813  .  S
C172       C178       1.44559  .  S
C172       C177       1.40957  .  S
C172       C173       1.44902  .  S
C173       C179       1.41934  .  S
C173       C174       1.40909  .  S
C173       C172       1.44902  .  S
C174       H36        1.09920  .  S
C174       C175       1.38388  .  S
C174       C173       1.40909  .  S
C175       C176       1.41967  .  S
C175       C174       1.38388  .  S
C175       N334       1.45000  .  S
C176       C177       1.38511  .  S
C176       C175       1.41967  .  S
C176       C194       1.55000  .  S
C177       C176       1.38511  .  S
C177       C172       1.40957  .  S
C177       H34        1.09920  .  S
C178       C180       1.37616  .  S
C178       H38        1.09920  .  S
C178       C172       1.44559  .  S
C179       C182       1.37563  .  S
C179       C180       1.53548  .  S
C179       C173       1.41934  .  S
C180       C181       1.42026  .  S
C180       C179       1.53548  .  S
C180       C178       1.37616  .  S
C181       C183       1.39007  .  S
C181       C180       1.42026  .  S
C181       H40        1.09920  .  S
C182       C183       1.57202  .  S
C182       C187       1.39007  .  S
C182       C179       1.37563  .  S
C183       C184       1.37563  .  S
C183       C182       1.57202  .  S
C183       C181       1.39007  .  S
C184       C186       1.53548  .  S
C184       C185       1.41934  .  S
C184       C183       1.37563  .  S
C185       C189       1.40909  .  S
C185       C188       1.44902  .  S
C185       C184       1.41934  .  S
C186       C190       1.37616  .  S
C186       C184       1.53548  .  S
C186       C187       1.42026  .  S
C187       C186       1.42026  .  S
C187       C182       1.39007  .  S
C187       H41        1.09920  .  S
C188       C191       1.40957  .  S
C188       C190       1.44559  .  S
C188       C185       1.44902  .  S
C189       C192       1.38388  .  S
C189       C185       1.40909  .  S
C189       H37        1.09920  .  S
C190       H39        1.09920  .  S
C190       C188       1.44559  .  S
C190       C186       1.37616  .  S
C191       H35        1.09920  .  S
C191       C193       1.38511  .  S
C191       C188       1.40957  .  S
C192       N335       1.45000  .  S
C192       C193       1.41967  .  S
C192       C189       1.38388  .  S
C193       C195       1.55000  .  S
C193       C192       1.41967  .  S
C193       C191       1.38511  .  S
C194       C176       1.55000  .  S
C194       N332       1.25000  .  S
C194       H12        1.11046  .  S
C195       N333       1.25000  .  S
C195       H13        1.11046  .  S
C195       C193       1.55000  .  S
C196       C197       1.53922  .  S
C196       H22        1.10503  .  S
C196       H14        1.10496  .  S
C196       N334       1.51075  .  S
C197       C196       1.53922  .  S
C197       H23        1.09949  .  S
C197       H15        1.09945  .  S
C197       C198       1.57972  .  S
C198       C201       1.53248  .  S
C198       C197       1.57972  .  S
C198       C200       1.53229  .  S
C198       C199       1.51619  .  S
C199       N334       1.31134  .  S
C199       C198       1.51619  .  S
C200       C198       1.53229  .  S
C200       H18        1.09505  .  S
C200       H17        1.09798  .  S
C200       H16        1.09376  .  S
C201       H21        1.09493  .  S
C201       H20        1.09372  .  S
C201       C198       1.53248  .  S
C201       H19        1.09793  .  S
C202       N335       1.51075  .  S
C202       C203       1.53922  .  S
C202       H32        1.10503  .  S
C202       H24        1.10496  .  S
C203       C204       1.57972  .  S
C203       C202       1.53922  .  S
C203       H33        1.09949  .  S
C203       H25        1.09945  .  S
C204       C206       1.53229  .  S
C204       C207       1.53248  .  S
C204       C205       1.51619  .  S
C204       C203       1.57972  .  S
C205       N335       1.31134  .  S
C205       C204       1.51619  .  S
C206       C204       1.53229  .  S
C206       H28        1.09505  .  S
C206       H27        1.09798  .  S
C206       H26        1.09376  .  S
C207       H30        1.09372  .  S
C207       H29        1.09793  .  S
C207       C204       1.53248  .  S
C207       H31        1.09493  .  S
C208       C213       1.40957  .  S
C208       C209       1.44902  .  S
C208       C214       1.44559  .  S
C209       C210       1.40909  .  S
C209       C208       1.44902  .  S
C209       C215       1.41934  .  S
C210       H66        1.09920  .  S
C210       C211       1.38388  .  S
C210       C209       1.40909  .  S
C211       N338       1.45000  .  S
C211       C212       1.41967  .  S
C211       C210       1.38388  .  S
C212       C230       1.55000  .  S
C212       C213       1.38511  .  S
C212       C211       1.41967  .  S
C213       C212       1.38511  .  S
C213       C208       1.40957  .  S
C213       H64        1.09920  .  S
C214       C208       1.44559  .  S
C214       C216       1.37616  .  S
C214       H68        1.09920  .  S
C215       C209       1.41934  .  S
C215       C218       1.37563  .  S
C215       C216       1.53548  .  S
C216       C217       1.42026  .  S
C216       C215       1.53548  .  S
C216       C214       1.37616  .  S
C217       C219       1.39007  .  S
C217       C216       1.42026  .  S
C217       H70        1.09920  .  S
C218       C223       1.39007  .  S
C218       C219       1.57202  .  S
C218       C215       1.37563  .  S
C219       C220       1.37563  .  S
C219       C218       1.57202  .  S
C219       C217       1.39007  .  S
C220       C222       1.53548  .  S
C220       C221       1.41934  .  S
C220       C219       1.37563  .  S
C221       C224       1.44902  .  S
C221       C220       1.41934  .  S
C221       C225       1.40909  .  S
C222       C226       1.37616  .  S
C222       C223       1.42026  .  S
C222       C220       1.53548  .  S
C223       C222       1.42026  .  S
C223       C218       1.39007  .  S
C223       H71        1.09920  .  S
C224       C226       1.44559  .  S
C224       C221       1.44902  .  S
C224       C227       1.40957  .  S
C225       C221       1.40909  .  S
C225       C228       1.38388  .  S
C225       H67        1.09920  .  S
C226       H69        1.09920  .  S
C226       C224       1.44559  .  S
C226       C222       1.37616  .  S
C227       C224       1.40957  .  S
C227       H65        1.09920  .  S
C227       C229       1.38511  .  S
C228       N339       1.45000  .  S
C228       C229       1.41967  .  S
C228       C225       1.38388  .  S
C229       C231       1.55000  .  S
C229       C228       1.41967  .  S
C229       C227       1.38511  .  S
C230       C212       1.55000  .  S
C230       H42        1.11046  .  S
C230       N336       1.25000  .  S
C231       N337       1.25000  .  S
C231       C229       1.55000  .  S
C231       H43        1.11046  .  S
C232       C233       1.53922  .  S
C232       H52        1.10503  .  S
C232       N338       1.51075  .  S
C232       H44        1.10496  .  S
C233       H53        1.09949  .  S
C233       H45        1.09945  .  S
C233       C234       1.57972  .  S
C233       C232       1.53922  .  S
C234       C237       1.53248  .  S
C234       C233       1.57972  .  S
C234       C236       1.53229  .  S
C234       C235       1.51619  .  S
C235       C234       1.51619  .  S
C235       N338       1.31134  .  S
C236       C234       1.53229  .  S
C236       H48        1.09505  .  S
C236       H47        1.09798  .  S
C236       H46        1.09376  .  S
C237       H51        1.09493  .  S
C237       H50        1.09372  .  S
C237       C234       1.53248  .  S
C237       H49        1.09793  .  S
C238       N339       1.51075  .  S
C238       H62        1.10503  .  S
C238       H54        1.10496  .  S
C238       C239       1.53922  .  S
C239       C238       1.53922  .  S
C239       C240       1.57972  .  S
C239       H63        1.09949  .  S
C239       H55        1.09945  .  S
C240       C241       1.51619  .  S
C240       C243       1.53248  .  S
C240       C242       1.53229  .  S
C240       C239       1.57972  .  S
C241       N339       1.31134  .  S
C241       C240       1.51619  .  S
C242       C240       1.53229  .  S
C242       H58        1.09505  .  S
C242       H57        1.09798  .  S
C242       H56        1.09376  .  S
C243       C240       1.53248  .  S
C243       H61        1.09493  .  S
C243       H60        1.09372  .  S
C243       H59        1.09793  .  S
C244       C245       1.44902  .  S
C244       C250       1.44559  .  S
C244       C249       1.40957  .  S
C245       C251       1.41934  .  S
C245       C246       1.40909  .  S
C245       C244       1.44902  .  S
C246       C247       1.38388  .  S
C246       C245       1.40909  .  S
C246       H96        1.09920  .  S
C247       N342       1.45000  .  S
C247       C246       1.38388  .  S
C247       C248       1.41967  .  S
C248       C247       1.41967  .  S
C248       C266       1.55000  .  S
C248       C249       1.38511  .  S
C249       C248       1.38511  .  S
C249       C244       1.40957  .  S
C249       H94        1.09920  .  S
C250       C252       1.37616  .  S
C250       H98        1.09920  .  S
C250       C244       1.44559  .  S
C251       C254       1.37563  .  S
C251       C252       1.53548  .  S
C251       C245       1.41934  .  S
C252       C253       1.42026  .  S
C252       C251       1.53548  .  S
C252       C250       1.37616  .  S
C253       C255       1.39007  .  S
C253       C252       1.42026  .  S
C253       H100       1.09920  .  S
C254       C259       1.39007  .  S
C254       C255       1.57202  .  S
C254       C251       1.37563  .  S
C255       C256       1.37563  .  S
C255       C254       1.57202  .  S
C255       C253       1.39007  .  S
C256       C257       1.41934  .  S
C256       C258       1.53548  .  S
C256       C255       1.37563  .  S
C257       C260       1.44902  .  S
C257       C261       1.40909  .  S
C257       C256       1.41934  .  S
C258       C262       1.37616  .  S
C258       C259       1.42026  .  S
C258       C256       1.53548  .  S
C259       C258       1.42026  .  S
C259       C254       1.39007  .  S
C259       H101       1.09920  .  S
C260       C263       1.40957  .  S
C260       C262       1.44559  .  S
C260       C257       1.44902  .  S
C261       C264       1.38388  .  S
C261       C257       1.40909  .  S
C261       H97        1.09920  .  S
C262       C260       1.44559  .  S
C262       H99        1.09920  .  S
C262       C258       1.37616  .  S
C263       C265       1.38511  .  S
C263       H95        1.09920  .  S
C263       C260       1.40957  .  S
C264       C265       1.41967  .  S
C264       N343       1.45000  .  S
C264       C261       1.38388  .  S
C265       C267       1.55000  .  S
C265       C263       1.38511  .  S
C265       C264       1.41967  .  S
C266       N340       1.25000  .  S
C266       C248       1.55000  .  S
C266       H72        1.11046  .  S
C267       N341       1.25000  .  S
C267       C265       1.55000  .  S
C267       H73        1.11046  .  S
C268       N342       1.51075  .  S
C268       H82        1.10503  .  S
C268       H74        1.10496  .  S
C268       C269       1.53922  .  S
C269       C268       1.53922  .  S
C269       C270       1.57972  .  S
C269       H83        1.09949  .  S
C269       H75        1.09945  .  S
C270       C271       1.51619  .  S
C270       C272       1.53229  .  S
C270       C273       1.53248  .  S
C270       C269       1.57972  .  S
C271       N342       1.31134  .  S
C271       C270       1.51619  .  S
C272       C270       1.53229  .  S
C272       H76        1.09376  .  S
C272       H78        1.09505  .  S
C272       H77        1.09798  .  S
C273       H80        1.09372  .  S
C273       H79        1.09793  .  S
C273       C270       1.53248  .  S
C273       H81        1.09493  .  S
C274       C275       1.53922  .  S
C274       N343       1.51075  .  S
C274       H92        1.10503  .  S
C274       H84        1.10496  .  S
C275       C276       1.57972  .  S
C275       H93        1.09949  .  S
C275       H85        1.09945  .  S
C275       C274       1.53922  .  S
C276       C278       1.53229  .  S
C276       C279       1.53248  .  S
C276       C275       1.57972  .  S
C276       C277       1.51619  .  S
C277       C276       1.51619  .  S
C277       N343       1.31134  .  S
C278       H88        1.09505  .  S
C278       H87        1.09798  .  S
C278       C276       1.53229  .  S
C278       H86        1.09376  .  S
C279       C276       1.53248  .  S
C279       H91        1.09493  .  S
C279       H90        1.09372  .  S
C279       H89        1.09793  .  S
C280       C281       1.44902  .  S
C280       C286       1.44559  .  S
C280       C285       1.40957  .  S
C281       C287       1.41934  .  S
C281       C282       1.40909  .  S
C281       C280       1.44902  .  S
C282       C283       1.38388  .  S
C282       H126       1.09920  .  S
C282       C281       1.40909  .  S
C283       N346       1.45000  .  S
C283       C284       1.41967  .  S
C283       C282       1.38388  .  S
C284       C283       1.41967  .  S
C284       C302       1.55000  .  S
C284       C285       1.38511  .  S
C285       C284       1.38511  .  S
C285       C280       1.40957  .  S
C285       H124       1.09920  .  S
C286       C288       1.37616  .  S
C286       C280       1.44559  .  S
C286       H128       1.09920  .  S
C287       C290       1.37563  .  S
C287       C288       1.53548  .  S
C287       C281       1.41934  .  S
C288       C289       1.42026  .  S
C288       C287       1.53548  .  S
C288       C286       1.37616  .  S
C289       C291       1.39007  .  S
C289       C288       1.42026  .  S
C289       H130       1.09920  .  S
C290       C295       1.39007  .  S
C290       C291       1.57202  .  S
C290       C287       1.37563  .  S
C291       C290       1.57202  .  S
C291       C289       1.39007  .  S
C291       C292       1.37563  .  S
C292       C294       1.53548  .  S
C292       C291       1.37563  .  S
C292       C293       1.41934  .  S
C293       C296       1.44902  .  S
C293       C297       1.40909  .  S
C293       C292       1.41934  .  S
C294       C298       1.37616  .  S
C294       C295       1.42026  .  S
C294       C292       1.53548  .  S
C295       C294       1.42026  .  S
C295       C290       1.39007  .  S
C295       H131       1.09920  .  S
C296       C298       1.44559  .  S
C296       C299       1.40957  .  S
C296       C293       1.44902  .  S
C297       C300       1.38388  .  S
C297       C293       1.40909  .  S
C297       H127       1.09920  .  S
C298       H129       1.09920  .  S
C298       C294       1.37616  .  S
C298       C296       1.44559  .  S
C299       C301       1.38511  .  S
C299       C296       1.40957  .  S
C299       H125       1.09920  .  S
C300       C301       1.41967  .  S
C300       C297       1.38388  .  S
C300       N347       1.45000  .  S
C301       C303       1.55000  .  S
C301       C299       1.38511  .  S
C301       C300       1.41967  .  S
C302       N344       1.25000  .  S
C302       C284       1.55000  .  S
C302       H102       1.11046  .  S
C303       N345       1.25000  .  S
C303       C301       1.55000  .  S
C303       H103       1.11046  .  S
C304       N346       1.51075  .  S
C304       C305       1.53922  .  S
C304       H112       1.10503  .  S
C304       H104       1.10496  .  S
C305       C306       1.57972  .  S
C305       C304       1.53922  .  S
C305       H113       1.09949  .  S
C305       H105       1.09945  .  S
C306       C309       1.53248  .  S
C306       C308       1.53229  .  S
C306       C307       1.51619  .  S
C306       C305       1.57972  .  S
C307       N346       1.31134  .  S
C307       C306       1.51619  .  S
C308       H106       1.09376  .  S
C308       C306       1.53229  .  S
C308       H108       1.09505  .  S
C308       H107       1.09798  .  S
C309       C306       1.53248  .  S
C309       H111       1.09493  .  S
C309       H110       1.09372  .  S
C309       H109       1.09793  .  S
C310       N347       1.51075  .  S
C310       C311       1.53922  .  S
C310       H122       1.10503  .  S
C310       H114       1.10496  .  S
C311       C312       1.57972  .  S
C311       C310       1.53922  .  S
C311       H123       1.09949  .  S
C311       H115       1.09945  .  S
C312       C315       1.53248  .  S
C312       C314       1.53229  .  S
C312       C313       1.51619  .  S
C312       C311       1.57972  .  S
C313       N347       1.31134  .  S
C313       C312       1.51619  .  S
C314       H118       1.09505  .  S
C314       H117       1.09798  .  S
C314       C312       1.53229  .  S
C314       H116       1.09376  .  S
C315       C312       1.53248  .  S
C315       H121       1.09493  .  S
C315       H120       1.09372  .  S
C315       H119       1.09793  .  S
I316       C150       2.30475  .  S
I317       C140       2.30475  .  S
I318       C133       2.30475  .  S
I319       C143       2.30475  .  S
I320       C170       2.30475  .  S
I321       C160       2.30475  .  S
I322       C153       2.30475  .  S
I323       C163       2.30475  .  S
N324       C132       1.41380  .  S
N324       C135       1.41380  .  S
N324       H0         1.02487  .  S
N325       C141       1.44181  .  S
N325       C138       1.33589  .  S
N326       C145       1.44181  .  S
N326       C142       1.33589  .  S
N327       H1         1.01938  .  S
N327       C151       1.39551  .  S
N327       C148       1.39551  .  S
N328       C155       1.41380  .  S
N328       C152       1.41380  .  S
N328       H6         1.02487  .  S
N329       C161       1.44181  .  S
N329       C158       1.33589  .  S
N330       C165       1.44181  .  S
N330       C162       1.33589  .  S
N331       C171       1.39551  .  S
N331       C168       1.39551  .  S
N331       H7         1.01938  .  S
N332       C194       1.25000  .  S
N333       C195       1.25000  .  S
N334       C196       1.51075  .  S
N334       C175       1.45000  .  S
N334       C199       1.31134  .  S
N335       C205       1.31134  .  S
N335       C202       1.51075  .  S
N335       C192       1.45000  .  S
N336       C230       1.25000  .  S
N337       C231       1.25000  .  S
N338       C235       1.31134  .  S
N338       C232       1.51075  .  S
N338       C211       1.45000  .  S
N339       C241       1.31134  .  S
N339       C238       1.51075  .  S
N339       C228       1.45000  .  S
N340       C266       1.25000  .  S
N341       C267       1.25000  .  S
N342       C271       1.31134  .  S
N342       C268       1.51075  .  S
N342       C247       1.45000  .  S
N343       C277       1.31134  .  S
N343       C274       1.51075  .  S
N343       C264       1.45000  .  S
N344       C302       1.25000  .  S
N345       C303       1.25000  .  S
N346       C307       1.31134  .  S
N346       C304       1.51075  .  S
N346       C283       1.45000  .  S
N347       C300       1.45000  .  S
N347       C313       1.31134  .  S
N347       C310       1.51075  .  S
