data_S4_PORP_NH2_EPO_H-L2_TPNY_CHO_O_H_H_H_H_H-SQL_A-AA

_audit_creation_date     2025-10-12
_audit_creation_method   pyCOFBuilder

_chemical_name_common                  'S4_PORP_NH2_EPO_H-L2_TPNY_CHO_O_H_H_H_H_H-SQL_A-AA'
_cell_length_a                           35.818601
_cell_length_b                           36.288835
_cell_length_c                            5.237445
_cell_angle_alpha                        90.00
_cell_angle_beta                         90.00
_cell_angle_gamma                        90.00
_space_group_name_H-M_alt               'P 1'
_space_group_IT_number                  1

loop_
_symmetry_equiv_pos_as_xyz
   'x, y, z'

loop_
   _atom_site_label
   _atom_site_type_symbol
   _atom_site_fract_x
   _atom_site_fract_y
   _atom_site_fract_z
   _atom_site_charge
H0                 H     0.469952461     0.999918717     0.500000000    0.00000
H1                 H     0.529670148     0.000080262     0.500000000    0.00000
H2                 H     0.677909564     0.968933346     0.426297009    0.00000
H3                 H     0.620265670     0.902648764     0.503636292    0.00000
H4                 H     0.669613731     0.897609803     0.418329300    0.00000
H5                 H     0.532223017     0.177634859     0.426297009    0.00000
H6                 H     0.597518499     0.118667196     0.503636292    0.00000
H7                 H     0.604183929     0.167191780     0.418329300    0.00000
H8                 H     0.320534525     0.032657862     0.426297009    0.00000
H9                 H     0.380813355     0.096618222     0.503636292    0.00000
H10                H     0.331708434     0.103597663     0.418329300    0.00000
H11                H     0.464872456     0.823436014     0.426297009    0.00000
H12                H     0.401690817     0.884606047     0.503636292    0.00000
H13                H     0.393322325     0.836339177     0.418329300    0.00000
H14                H     0.642985497     0.037777415     0.500000000    0.00000
H15                H     0.355672258     0.961996800     0.500000000    0.00000
H16                H     0.537929708     0.857005598     0.500000000    0.00000
H17                H     0.460387017     0.141766817     0.500000000    0.00000
H18                H     0.969952461     0.499918717     0.500000000    0.00000
H19                H     0.029670148     0.500080262     0.500000000    0.00000
H20                H     0.177909564     0.468933346     0.426297009    0.00000
H21                H     0.120265670     0.402648764     0.503636292    0.00000
H22                H     0.169613731     0.397609803     0.418329300    0.00000
H23                H     0.032223017     0.677634859     0.426297009    0.00000
H24                H     0.097518499     0.618667196     0.503636292    0.00000
H25                H     0.104183929     0.667191780     0.418329300    0.00000
H26                H     0.820534525     0.532657862     0.426297009    0.00000
H27                H     0.880813355     0.596618222     0.503636292    0.00000
H28                H     0.831708434     0.603597663     0.418329300    0.00000
H29                H     0.964872456     0.323436014     0.426297009    0.00000
H30                H     0.901690817     0.384606047     0.503636292    0.00000
H31                H     0.893322325     0.336339177     0.418329300    0.00000
H32                H     0.142985497     0.537777415     0.500000000    0.00000
H33                H     0.855672258     0.461996800     0.500000000    0.00000
H34                H     0.037929708     0.357005598     0.500000000    0.00000
H35                H     0.960387017     0.641766817     0.500000000    0.00000
H36                H     0.359546673     0.438628402     0.500000000    0.00000
H37                H     0.140453327     0.061371598     0.500000000    0.00000
H38                H     0.319144912     0.241859238     0.500000000    0.00000
H39                H     0.180855088     0.258140762     0.500000000    0.00000
H40                H     0.349868240     0.282355907     0.500000000    0.00000
H41                H     0.150131760     0.217644093     0.500000000    0.00000
H42                H     0.391567166     0.337393327     0.500000000    0.00000
H43                H     0.108432834     0.162606673     0.500000000    0.00000
H44                H     0.204912712     0.091286867     0.500000000    0.00000
H45                H     0.295087288     0.408713133     0.500000000    0.00000
H46                H     0.246695458     0.146262891     0.500000000    0.00000
H47                H     0.253304542     0.353737109     0.500000000    0.00000
H48                H     0.560340212     0.360578060     0.500000000    0.00000
H49                H     0.939659788     0.139421940     0.500000000    0.00000
H50                H     0.759148725     0.318136950     0.500000000    0.00000
H51                H     0.740851275     0.181863050     0.500000000    0.00000
H52                H     0.718524592     0.348987742     0.500000000    0.00000
H53                H     0.781475408     0.151012258     0.500000000    0.00000
H54                H     0.663313210     0.390860628     0.500000000    0.00000
H55                H     0.836686790     0.109139372     0.500000000    0.00000
H56                H     0.910195046     0.203430799     0.500000000    0.00000
H57                H     0.589804954     0.296569201     0.500000000    0.00000
H58                H     0.855046954     0.245385613     0.500000000    0.00000
H59                H     0.644953046     0.254614387     0.500000000    0.00000
H60                H     0.859546673     0.938628402     0.500000000    0.00000
H61                H     0.640453327     0.561371598     0.500000000    0.00000
H62                H     0.819144912     0.741859238     0.500000000    0.00000
H63                H     0.680855088     0.758140762     0.500000000    0.00000
H64                H     0.849868240     0.782355907     0.500000000    0.00000
H65                H     0.650131760     0.717644093     0.500000000    0.00000
H66                H     0.891567166     0.837393327     0.500000000    0.00000
H67                H     0.608432834     0.662606673     0.500000000    0.00000
H68                H     0.704912712     0.591286867     0.500000000    0.00000
H69                H     0.795087288     0.908713133     0.500000000    0.00000
H70                H     0.746695458     0.646262891     0.500000000    0.00000
H71                H     0.753304542     0.853737109     0.500000000    0.00000
H72                H     0.060340212     0.860578060     0.500000000    0.00000
H73                H     0.439659788     0.639421940     0.500000000    0.00000
H74                H     0.259148725     0.818136950     0.500000000    0.00000
H75                H     0.240851275     0.681863050     0.500000000    0.00000
H76                H     0.218524592     0.848987742     0.500000000    0.00000
H77                H     0.281475408     0.651012258     0.500000000    0.00000
H78                H     0.163313210     0.890860628     0.500000000    0.00000
H79                H     0.336686790     0.609139372     0.500000000    0.00000
H80                H     0.410195046     0.703430799     0.500000000    0.00000
H81                H     0.089804954     0.796569201     0.500000000    0.00000
H82                H     0.355046954     0.745385613     0.500000000    0.00000
H83                H     0.144953046     0.754614387     0.500000000    0.00000
C84                C     0.418796193     0.031821487     0.500000000    0.00000
C85                C     0.379394641     0.018260138     0.500000000    0.00000
C86                C     0.379497855     0.981087635     0.500000000    0.00000
C87                C     0.418974125     0.967739660     0.500000000    0.00000
C88                C     0.430942130     0.932256062     0.500000000    0.00000
C89                C     0.430566972     0.067369301     0.500000000    0.00000
C90                C     0.468956641     0.079074902     0.500000000    0.00000
C91                C     0.480352411     0.118763566     0.500000000    0.00000
C92                C     0.518122707     0.119420574     0.500000000    0.00000
C93                C     0.531354731     0.080434134     0.500000000    0.00000
C94                C     0.469396227     0.920758335     0.500000000    0.00000
C95                C     0.481012225     0.881131920     0.500000000    0.00000
C96                C     0.518785603     0.880679268     0.500000000    0.00000
C97                C     0.531800928     0.919736710     0.500000000    0.00000
C98                C     0.567274048     0.068971013     0.500000000    0.00000
C99                C     0.567656048     0.931393991     0.500000000    0.00000
C100               C     0.580585768     0.031582542     0.500000000    0.00000
C101               C     0.618406762     0.019640616     0.500000000    0.00000
C102               C     0.618514052     0.981000286     0.500000000    0.00000
C103               C     0.580759942     0.968853920     0.500000000    0.00000
C104               C     0.652191840     0.956432123     0.500000000    0.00000
C105               C     0.647871131     0.915124176     0.497203551    0.00000
C106               C     0.544067512     0.151867201     0.500000000    0.00000
C107               C     0.585759926     0.146296377     0.497203551    0.00000
C108               C     0.346737361     0.044135746     0.500000000    0.00000
C109               C     0.352725330     0.085240512     0.497203551    0.00000
C110               C     0.453941603     0.849594089     0.500000000    0.00000
C111               C     0.412470312     0.856590516     0.497203551    0.00000
C112               C     0.918796193     0.531821487     0.500000000    0.00000
C113               C     0.879394641     0.518260138     0.500000000    0.00000
C114               C     0.879497855     0.481087635     0.500000000    0.00000
C115               C     0.918974125     0.467739660     0.500000000    0.00000
C116               C     0.930942130     0.432256062     0.500000000    0.00000
C117               C     0.930566972     0.567369301     0.500000000    0.00000
C118               C     0.968956641     0.579074902     0.500000000    0.00000
C119               C     0.980352411     0.618763566     0.500000000    0.00000
C120               C     0.018122707     0.619420574     0.500000000    0.00000
C121               C     0.031354731     0.580434134     0.500000000    0.00000
C122               C     0.969396227     0.420758335     0.500000000    0.00000
C123               C     0.981012225     0.381131920     0.500000000    0.00000
C124               C     0.018785603     0.380679268     0.500000000    0.00000
C125               C     0.031800928     0.419736710     0.500000000    0.00000
C126               C     0.067274048     0.568971013     0.500000000    0.00000
C127               C     0.067656048     0.431393991     0.500000000    0.00000
C128               C     0.080585768     0.531582542     0.500000000    0.00000
C129               C     0.118406762     0.519640616     0.500000000    0.00000
C130               C     0.118514052     0.481000286     0.500000000    0.00000
C131               C     0.080759942     0.468853920     0.500000000    0.00000
C132               C     0.152191840     0.456432123     0.500000000    0.00000
C133               C     0.147871131     0.415124176     0.497203551    0.00000
C134               C     0.044067512     0.651867201     0.500000000    0.00000
C135               C     0.085759926     0.646296377     0.497203551    0.00000
C136               C     0.846737361     0.544135746     0.500000000    0.00000
C137               C     0.852725330     0.585240512     0.497203551    0.00000
C138               C     0.953941603     0.349594089     0.500000000    0.00000
C139               C     0.912470312     0.356590516     0.497203551    0.00000
C140               C     0.307182249     0.380880790     0.500000000    0.00000
C141               C     0.283779193     0.350047258     0.500000000    0.00000
C142               C     0.299153565     0.314720157     0.500000000    0.00000
C143               C     0.337743342     0.310175518     0.500000000    0.00000
C144               C     0.361109861     0.340936105     0.500000000    0.00000
C145               C     0.345798726     0.376331205     0.500000000    0.00000
C146               C     0.273342247     0.280777075     0.500000000    0.00000
C147               C     0.288664936     0.245456610     0.500000000    0.00000
C148               C     0.234681217     0.285372457     0.500000000    0.00000
C149               C     0.265318783     0.214627543     0.500000000    0.00000
C150               C     0.211335064     0.254543390     0.500000000    0.00000
C151               C     0.226657753     0.219222925     0.500000000    0.00000
C152               C     0.200846435     0.185279843     0.500000000    0.00000
C153               C     0.162256658     0.189824482     0.500000000    0.00000
C154               C     0.216220807     0.149952742     0.500000000    0.00000
C155               C     0.138890139     0.159063895     0.500000000    0.00000
C156               C     0.192817751     0.119119210     0.500000000    0.00000
C157               C     0.154201274     0.123668795     0.500000000    0.00000
C158               C     0.371735631     0.410492182     0.500000000    0.00000
C159               C     0.128264369     0.089507818     0.500000000    0.00000
C160               C     0.618158031     0.308143428     0.500000000    0.00000
C161               C     0.649088471     0.284643464     0.500000000    0.00000
C162               C     0.685076823     0.299356585     0.500000000    0.00000
C163               C     0.690184022     0.337383802     0.500000000    0.00000
C164               C     0.659327002     0.360846754     0.500000000    0.00000
C165               C     0.623270589     0.346196931     0.500000000    0.00000
C166               C     0.719125959     0.273439212     0.500000000    0.00000
C167               C     0.755106914     0.288101411     0.500000000    0.00000
C168               C     0.713966426     0.235342334     0.500000000    0.00000
C169               C     0.786033574     0.264657666     0.500000000    0.00000
C170               C     0.744893086     0.211898589     0.500000000    0.00000
C171               C     0.780874041     0.226560788     0.500000000    0.00000
C172               C     0.814923177     0.200643415     0.500000000    0.00000
C173               C     0.809815978     0.162616198     0.500000000    0.00000
C174               C     0.850911529     0.215356536     0.500000000    0.00000
C175               C     0.840672998     0.139153246     0.500000000    0.00000
C176               C     0.881841969     0.191856572     0.500000000    0.00000
C177               C     0.876729411     0.153803069     0.500000000    0.00000
C178               C     0.589002354     0.372241095     0.500000000    0.00000
C179               C     0.910997646     0.127758905     0.500000000    0.00000
C180               C     0.807182249     0.880880790     0.500000000    0.00000
C181               C     0.783779193     0.850047258     0.500000000    0.00000
C182               C     0.799153565     0.814720157     0.500000000    0.00000
C183               C     0.837743342     0.810175518     0.500000000    0.00000
C184               C     0.861109861     0.840936105     0.500000000    0.00000
C185               C     0.845798726     0.876331205     0.500000000    0.00000
C186               C     0.773342247     0.780777075     0.500000000    0.00000
C187               C     0.788664936     0.745456610     0.500000000    0.00000
C188               C     0.734681217     0.785372457     0.500000000    0.00000
C189               C     0.765318783     0.714627543     0.500000000    0.00000
C190               C     0.711335064     0.754543390     0.500000000    0.00000
C191               C     0.726657753     0.719222925     0.500000000    0.00000
C192               C     0.700846435     0.685279843     0.500000000    0.00000
C193               C     0.662256658     0.689824482     0.500000000    0.00000
C194               C     0.716220807     0.649952742     0.500000000    0.00000
C195               C     0.638890139     0.659063895     0.500000000    0.00000
C196               C     0.692817751     0.619119210     0.500000000    0.00000
C197               C     0.654201274     0.623668795     0.500000000    0.00000
C198               C     0.871735631     0.910492182     0.500000000    0.00000
C199               C     0.628264369     0.589507818     0.500000000    0.00000
C200               C     0.118158031     0.808143428     0.500000000    0.00000
C201               C     0.149088471     0.784643464     0.500000000    0.00000
C202               C     0.185076823     0.799356585     0.500000000    0.00000
C203               C     0.190184022     0.837383802     0.500000000    0.00000
C204               C     0.159327002     0.860846754     0.500000000    0.00000
C205               C     0.123270589     0.846196931     0.500000000    0.00000
C206               C     0.219125959     0.773439212     0.500000000    0.00000
C207               C     0.255106914     0.788101411     0.500000000    0.00000
C208               C     0.213966426     0.735342334     0.500000000    0.00000
C209               C     0.286033574     0.764657666     0.500000000    0.00000
C210               C     0.244893086     0.711898589     0.500000000    0.00000
C211               C     0.280874041     0.726560788     0.500000000    0.00000
C212               C     0.314923177     0.700643415     0.500000000    0.00000
C213               C     0.309815978     0.662616198     0.500000000    0.00000
C214               C     0.350911529     0.715356536     0.500000000    0.00000
C215               C     0.340672998     0.639153246     0.500000000    0.00000
C216               C     0.381841969     0.691856572     0.500000000    0.00000
C217               C     0.376729411     0.653803069     0.500000000    0.00000
C218               C     0.089002354     0.872241095     0.500000000    0.00000
C219               C     0.410997646     0.627758905     0.500000000    0.00000
N220               N     0.441339794     0.999841316     0.500000000    0.00000
N221               N     0.498826121     0.057030510     0.500000000    0.00000
N222               N     0.499142841     0.942963995     0.500000000    0.00000
N223               N     0.558129603     0.000157248     0.500000000    0.00000
N224               N     0.941339794     0.499841316     0.500000000    0.00000
N225               N     0.998826121     0.557030510     0.500000000    0.00000
N226               N     0.999142841     0.442963995     0.500000000    0.00000
N227               N     0.058129603     0.500157248     0.500000000    0.00000
N228               N     0.406384699     0.406384699     0.500000000    0.00000
N229               N     0.093615301     0.093615301     0.500000000    0.00000
N230               N     0.593615301     0.406384699     0.500000000    0.00000
N231               N     0.906384699     0.093615301     0.500000000    0.00000
N232               N     0.906384699     0.906384699     0.500000000    0.00000
N233               N     0.593615301     0.593615301     0.500000000    0.00000
N234               N     0.093615301     0.906384699     0.500000000    0.00000
N235               N     0.406384699     0.593615301     0.500000000    0.00000
O236               O     0.658464523     0.934468131     0.730971295    0.00000
O237               O     0.566507348     0.157359886     0.730971295    0.00000
O238               O     0.341358015     0.066329396     0.730971295    0.00000
O239               O     0.431322068     0.844873818     0.730971295    0.00000
O240               O     0.158464523     0.434468131     0.730971295    0.00000
O241               O     0.066507348     0.657359886     0.730971295    0.00000
O242               O     0.841358015     0.566329396     0.730971295    0.00000
O243               O     0.931322068     0.344873818     0.730971295    0.00000
O244               O     0.279952051     0.180837677     0.500000000    0.00000
O245               O     0.220047949     0.319162323     0.500000000    0.00000
O246               O     0.820454976     0.278659398     0.500000000    0.00000
O247               O     0.679545024     0.221340602     0.500000000    0.00000
O248               O     0.779952051     0.680837677     0.500000000    0.00000
O249               O     0.720047949     0.819162323     0.500000000    0.00000
O250               O     0.320454976     0.778659398     0.500000000    0.00000
O251               O     0.179545024     0.721340602     0.500000000    0.00000

loop_
_geom_bond_atom_site_label_1
_geom_bond_atom_site_label_2
_geom_bond_distance
_geom_bond_site_symmetry_2
_ccdc_geom_bond_type
H0         N220       1.02487  .  S
H1         N223       1.01938  .  S
H2         C104       1.09698  .  S
H3         C105       1.08802  .  S
H4         C105       1.08679  .  S
H5         C106       1.09698  .  S
H6         C107       1.08802  .  S
H7         C107       1.08679  .  S
H8         C108       1.09698  .  S
H9         C109       1.08802  .  S
H10        C109       1.08679  .  S
H11        C110       1.09698  .  S
H12        C111       1.08802  .  S
H13        C111       1.08679  .  S
H14        C101       1.09920  .  S
H15        C86        1.09920  .  S
H16        C96        1.09920  .  S
H17        C91        1.09920  .  S
H18        N224       1.02487  .  S
H19        N227       1.01938  .  S
H20        C132       1.09698  .  S
H21        C133       1.08802  .  S
H22        C133       1.08679  .  S
H23        C134       1.09698  .  S
H24        C135       1.08802  .  S
H25        C135       1.08679  .  S
H26        C136       1.09698  .  S
H27        C137       1.08802  .  S
H28        C137       1.08679  .  S
H29        C138       1.09698  .  S
H30        C139       1.08802  .  S
H31        C139       1.08679  .  S
H32        C129       1.09920  .  S
H33        C114       1.09920  .  S
H34        C124       1.09920  .  S
H35        C119       1.09920  .  S
H36        C158       1.11046  .  S
H37        C159       1.11046  .  S
H38        C147       1.09953  .  S
H39        C150       1.09953  .  S
H40        C143       1.09899  .  S
H41        C153       1.09899  .  S
H42        C144       1.09849  .  S
H43        C155       1.09849  .  S
H44        C156       1.09900  .  S
H45        C140       1.09900  .  S
H46        C154       1.09974  .  S
H47        C141       1.09974  .  S
H48        C178       1.11046  .  S
H49        C179       1.11046  .  S
H50        C167       1.09953  .  S
H51        C170       1.09953  .  S
H52        C163       1.09899  .  S
H53        C173       1.09899  .  S
H54        C164       1.09849  .  S
H55        C175       1.09849  .  S
H56        C176       1.09900  .  S
H57        C160       1.09900  .  S
H58        C174       1.09974  .  S
H59        C161       1.09974  .  S
H60        C198       1.11046  .  S
H61        C199       1.11046  .  S
H62        C187       1.09953  .  S
H63        C190       1.09953  .  S
H64        C183       1.09899  .  S
H65        C193       1.09899  .  S
H66        C184       1.09849  .  S
H67        C195       1.09849  .  S
H68        C196       1.09900  .  S
H69        C180       1.09900  .  S
H70        C194       1.09974  .  S
H71        C181       1.09974  .  S
H72        C218       1.11046  .  S
H73        C219       1.11046  .  S
H74        C207       1.09953  .  S
H75        C210       1.09953  .  S
H76        C203       1.09899  .  S
H77        C213       1.09899  .  S
H78        C204       1.09849  .  S
H79        C215       1.09849  .  S
H80        C216       1.09900  .  S
H81        C200       1.09900  .  S
H82        C214       1.09974  .  S
H83        C201       1.09974  .  S
C84        C89        1.35714  .  S
C84        C85        1.49465  .  S
C84        N220       1.41380  .  S
C85        C86        1.34895  .  S
C85        C108       1.50000  .  S
C85        C84        1.49465  .  S
C86        H15        1.09920  .  S
C86        C85        1.34895  .  S
C86        C87        1.49465  .  S
C87        C88        1.35714  .  S
C87        C86        1.49465  .  S
C87        N220       1.41380  .  S
C88        C87        1.35714  .  S
C88        C94        1.43918  .  S
C89        C84        1.35714  .  S
C89        C90        1.43918  .  S
C90        C89        1.43918  .  S
C90        N221       1.33589  .  S
C90        C91        1.49698  .  S
C91        C92        1.35309  .  S
C91        C90        1.49698  .  S
C91        H17        1.09920  .  S
C92        C93        1.49205  .  S
C92        C91        1.35309  .  S
C92        C106       1.50000  .  S
C93        N221       1.44181  .  S
C93        C98        1.35216  .  S
C93        C92        1.49205  .  S
C94        C88        1.43918  .  S
C94        N222       1.33589  .  S
C94        C95        1.49698  .  S
C95        C110       1.50000  .  S
C95        C96        1.35309  .  S
C95        C94        1.49698  .  S
C96        C97        1.49205  .  S
C96        C95        1.35309  .  S
C96        H16        1.09920  .  S
C97        N222       1.44181  .  S
C97        C99        1.35216  .  S
C97        C96        1.49205  .  S
C98        C93        1.35216  .  S
C98        C100       1.43813  .  S
C99        C97        1.35216  .  S
C99        C103       1.43813  .  S
C100       N223       1.39551  .  S
C100       C98        1.43813  .  S
C100       C101       1.42232  .  S
C101       C102       1.40222  .  S
C101       C100       1.42232  .  S
C101       H14        1.09920  .  S
C102       C104       1.50000  .  S
C102       C101       1.40222  .  S
C102       C103       1.42232  .  S
C103       C99        1.43813  .  S
C103       N223       1.39551  .  S
C103       C102       1.42232  .  S
C104       O236       1.46599  .  S
C104       C105       1.50706  .  S
C104       C102       1.50000  .  S
C104       H2         1.09698  .  S
C105       O236       1.46142  .  S
C105       C104       1.50706  .  S
C105       H4         1.08679  .  S
C105       H3         1.08802  .  S
C106       C92        1.50000  .  S
C106       O237       1.46599  .  S
C106       H5         1.09698  .  S
C106       C107       1.50706  .  S
C107       O237       1.46142  .  S
C107       C106       1.50706  .  S
C107       H6         1.08802  .  S
C107       H7         1.08679  .  S
C108       O238       1.46599  .  S
C108       C109       1.50706  .  S
C108       C85        1.50000  .  S
C108       H8         1.09698  .  S
C109       O238       1.46142  .  S
C109       C108       1.50706  .  S
C109       H10        1.08679  .  S
C109       H9         1.08802  .  S
C110       O239       1.46599  .  S
C110       C111       1.50706  .  S
C110       H11        1.09698  .  S
C110       C95        1.50000  .  S
C111       O239       1.46142  .  S
C111       H13        1.08679  .  S
C111       H12        1.08802  .  S
C111       C110       1.50706  .  S
C112       N224       1.41380  .  S
C112       C113       1.49465  .  S
C112       C117       1.35714  .  S
C113       C136       1.50000  .  S
C113       C114       1.34895  .  S
C113       C112       1.49465  .  S
C114       H33        1.09920  .  S
C114       C115       1.49465  .  S
C114       C113       1.34895  .  S
C115       N224       1.41380  .  S
C115       C116       1.35714  .  S
C115       C114       1.49465  .  S
C116       C122       1.43918  .  S
C116       C115       1.35714  .  S
C117       C112       1.35714  .  S
C117       C118       1.43918  .  S
C118       C119       1.49698  .  S
C118       C117       1.43918  .  S
C118       N225       1.33589  .  S
C119       C118       1.49698  .  S
C119       H35        1.09920  .  S
C119       C120       1.35309  .  S
C120       C119       1.35309  .  S
C120       C134       1.50000  .  S
C120       C121       1.49205  .  S
C121       N225       1.44181  .  S
C121       C126       1.35216  .  S
C121       C120       1.49205  .  S
C122       C123       1.49698  .  S
C122       C116       1.43918  .  S
C122       N226       1.33589  .  S
C123       C138       1.50000  .  S
C123       C122       1.49698  .  S
C123       C124       1.35309  .  S
C124       C123       1.35309  .  S
C124       H34        1.09920  .  S
C124       C125       1.49205  .  S
C125       N226       1.44181  .  S
C125       C124       1.49205  .  S
C125       C127       1.35216  .  S
C126       C128       1.43813  .  S
C126       C121       1.35216  .  S
C127       C131       1.43813  .  S
C127       C125       1.35216  .  S
C128       N227       1.39551  .  S
C128       C129       1.42232  .  S
C128       C126       1.43813  .  S
C129       C130       1.40222  .  S
C129       C128       1.42232  .  S
C129       H32        1.09920  .  S
C130       C132       1.50000  .  S
C130       C131       1.42232  .  S
C130       C129       1.40222  .  S
C131       N227       1.39551  .  S
C131       C130       1.42232  .  S
C131       C127       1.43813  .  S
C132       C133       1.50706  .  S
C132       C130       1.50000  .  S
C132       O240       1.46599  .  S
C132       H20        1.09698  .  S
C133       H21        1.08802  .  S
C133       C132       1.50706  .  S
C133       H22        1.08679  .  S
C133       O240       1.46142  .  S
C134       O241       1.46599  .  S
C134       C135       1.50706  .  S
C134       C120       1.50000  .  S
C134       H23        1.09698  .  S
C135       O241       1.46142  .  S
C135       C134       1.50706  .  S
C135       H25        1.08679  .  S
C135       H24        1.08802  .  S
C136       H26        1.09698  .  S
C136       O242       1.46599  .  S
C136       C137       1.50706  .  S
C136       C113       1.50000  .  S
C137       C136       1.50706  .  S
C137       O242       1.46142  .  S
C137       H28        1.08679  .  S
C137       H27        1.08802  .  S
C138       O243       1.46599  .  S
C138       C139       1.50706  .  S
C138       C123       1.50000  .  S
C138       H29        1.09698  .  S
C139       O243       1.46142  .  S
C139       C138       1.50706  .  S
C139       H31        1.08679  .  S
C139       H30        1.08802  .  S
C140       C141       1.39809  .  S
C140       H45        1.09900  .  S
C140       C145       1.39301  .  S
C141       H47        1.09974  .  S
C141       C142       1.39525  .  S
C141       C140       1.39809  .  S
C142       C146       1.54012  .  S
C142       C141       1.39525  .  S
C142       C143       1.39204  .  S
C143       C144       1.39519  .  S
C143       C142       1.39204  .  S
C143       H40        1.09899  .  S
C144       C145       1.39663  .  S
C144       C143       1.39519  .  S
C144       H42        1.09849  .  S
C145       C158       1.54914  .  S
C145       C144       1.39663  .  S
C145       C140       1.39301  .  S
C146       C147       1.39430  .  S
C146       C148       1.39479  .  S
C146       C142       1.54012  .  S
C147       C149       1.39674  .  S
C147       C146       1.39430  .  S
C147       H38        1.09953  .  S
C148       C150       1.39674  .  S
C148       O245       1.33352  .  S
C148       C146       1.39479  .  S
C149       O244       1.33352  .  S
C149       C151       1.39479  .  S
C149       C147       1.39674  .  S
C150       C151       1.39430  .  S
C150       H39        1.09953  .  S
C150       C148       1.39674  .  S
C151       C152       1.54012  .  S
C151       C150       1.39430  .  S
C151       C149       1.39479  .  S
C152       C154       1.39525  .  S
C152       C153       1.39204  .  S
C152       C151       1.54012  .  S
C153       C155       1.39519  .  S
C153       H41        1.09899  .  S
C153       C152       1.39204  .  S
C154       C156       1.39809  .  S
C154       C152       1.39525  .  S
C154       H46        1.09974  .  S
C155       C157       1.39663  .  S
C155       H43        1.09849  .  S
C155       C153       1.39519  .  S
C156       C157       1.39301  .  S
C156       H44        1.09900  .  S
C156       C154       1.39809  .  S
C157       C159       1.54914  .  S
C157       C155       1.39663  .  S
C157       C156       1.39301  .  S
C158       N228       1.25000  .  S
C158       C145       1.54914  .  S
C158       H36        1.11046  .  S
C159       N229       1.25000  .  S
C159       C157       1.54914  .  S
C159       H37        1.11046  .  S
C160       C165       1.39301  .  S
C160       C161       1.39809  .  S
C160       H57        1.09900  .  S
C161       H59        1.09974  .  S
C161       C162       1.39525  .  S
C161       C160       1.39809  .  S
C162       C163       1.39204  .  S
C162       C161       1.39525  .  S
C162       C166       1.54012  .  S
C163       C164       1.39519  .  S
C163       C162       1.39204  .  S
C163       H52        1.09899  .  S
C164       C165       1.39663  .  S
C164       C163       1.39519  .  S
C164       H54        1.09849  .  S
C165       C178       1.54914  .  S
C165       C164       1.39663  .  S
C165       C160       1.39301  .  S
C166       C168       1.39479  .  S
C166       C162       1.54012  .  S
C166       C167       1.39430  .  S
C167       C169       1.39674  .  S
C167       C166       1.39430  .  S
C167       H50        1.09953  .  S
C168       O247       1.33352  .  S
C168       C170       1.39674  .  S
C168       C166       1.39479  .  S
C169       C171       1.39479  .  S
C169       O246       1.33352  .  S
C169       C167       1.39674  .  S
C170       C168       1.39674  .  S
C170       C171       1.39430  .  S
C170       H51        1.09953  .  S
C171       C172       1.54012  .  S
C171       C170       1.39430  .  S
C171       C169       1.39479  .  S
C172       C174       1.39525  .  S
C172       C173       1.39204  .  S
C172       C171       1.54012  .  S
C173       C175       1.39519  .  S
C173       C172       1.39204  .  S
C173       H53        1.09899  .  S
C174       C172       1.39525  .  S
C174       H58        1.09974  .  S
C174       C176       1.39809  .  S
C175       H55        1.09849  .  S
C175       C173       1.39519  .  S
C175       C177       1.39663  .  S
C176       C174       1.39809  .  S
C176       C177       1.39301  .  S
C176       H56        1.09900  .  S
C177       C175       1.39663  .  S
C177       C179       1.54914  .  S
C177       C176       1.39301  .  S
C178       H48        1.11046  .  S
C178       N230       1.25000  .  S
C178       C165       1.54914  .  S
C179       N231       1.25000  .  S
C179       C177       1.54914  .  S
C179       H49        1.11046  .  S
C180       C185       1.39301  .  S
C180       C181       1.39809  .  S
C180       H69        1.09900  .  S
C181       C182       1.39525  .  S
C181       C180       1.39809  .  S
C181       H71        1.09974  .  S
C182       C186       1.54012  .  S
C182       C183       1.39204  .  S
C182       C181       1.39525  .  S
C183       C182       1.39204  .  S
C183       H64        1.09899  .  S
C183       C184       1.39519  .  S
C184       C183       1.39519  .  S
C184       C185       1.39663  .  S
C184       H66        1.09849  .  S
C185       C180       1.39301  .  S
C185       C198       1.54914  .  S
C185       C184       1.39663  .  S
C186       C188       1.39479  .  S
C186       C187       1.39430  .  S
C186       C182       1.54012  .  S
C187       C189       1.39674  .  S
C187       C186       1.39430  .  S
C187       H62        1.09953  .  S
C188       C190       1.39674  .  S
C188       O249       1.33352  .  S
C188       C186       1.39479  .  S
C189       O248       1.33352  .  S
C189       C191       1.39479  .  S
C189       C187       1.39674  .  S
C190       H63        1.09953  .  S
C190       C191       1.39430  .  S
C190       C188       1.39674  .  S
C191       C192       1.54012  .  S
C191       C190       1.39430  .  S
C191       C189       1.39479  .  S
C192       C193       1.39204  .  S
C192       C194       1.39525  .  S
C192       C191       1.54012  .  S
C193       C195       1.39519  .  S
C193       C192       1.39204  .  S
C193       H65        1.09899  .  S
C194       C196       1.39809  .  S
C194       C192       1.39525  .  S
C194       H70        1.09974  .  S
C195       C197       1.39663  .  S
C195       H67        1.09849  .  S
C195       C193       1.39519  .  S
C196       C197       1.39301  .  S
C196       H68        1.09900  .  S
C196       C194       1.39809  .  S
C197       C199       1.54914  .  S
C197       C196       1.39301  .  S
C197       C195       1.39663  .  S
C198       C185       1.54914  .  S
C198       N232       1.25000  .  S
C198       H60        1.11046  .  S
C199       N233       1.25000  .  S
C199       C197       1.54914  .  S
C199       H61        1.11046  .  S
C200       C201       1.39809  .  S
C200       H81        1.09900  .  S
C200       C205       1.39301  .  S
C201       C200       1.39809  .  S
C201       H83        1.09974  .  S
C201       C202       1.39525  .  S
C202       C201       1.39525  .  S
C202       C206       1.54012  .  S
C202       C203       1.39204  .  S
C203       C202       1.39204  .  S
C203       C204       1.39519  .  S
C203       H76        1.09899  .  S
C204       C205       1.39663  .  S
C204       C203       1.39519  .  S
C204       H78        1.09849  .  S
C205       C200       1.39301  .  S
C205       C218       1.54914  .  S
C205       C204       1.39663  .  S
C206       C208       1.39479  .  S
C206       C207       1.39430  .  S
C206       C202       1.54012  .  S
C207       C209       1.39674  .  S
C207       C206       1.39430  .  S
C207       H74        1.09953  .  S
C208       O251       1.33352  .  S
C208       C210       1.39674  .  S
C208       C206       1.39479  .  S
C209       C211       1.39479  .  S
C209       C207       1.39674  .  S
C209       O250       1.33352  .  S
C210       H75        1.09953  .  S
C210       C211       1.39430  .  S
C210       C208       1.39674  .  S
C211       C210       1.39430  .  S
C211       C209       1.39479  .  S
C211       C212       1.54012  .  S
C212       C211       1.54012  .  S
C212       C213       1.39204  .  S
C212       C214       1.39525  .  S
C213       H77        1.09899  .  S
C213       C215       1.39519  .  S
C213       C212       1.39204  .  S
C214       C216       1.39809  .  S
C214       C212       1.39525  .  S
C214       H82        1.09974  .  S
C215       C217       1.39663  .  S
C215       C213       1.39519  .  S
C215       H79        1.09849  .  S
C216       C217       1.39301  .  S
C216       C214       1.39809  .  S
C216       H80        1.09900  .  S
C217       C219       1.54914  .  S
C217       C215       1.39663  .  S
C217       C216       1.39301  .  S
C218       N234       1.25000  .  S
C218       C205       1.54914  .  S
C218       H72        1.11046  .  S
C219       N235       1.25000  .  S
C219       C217       1.54914  .  S
C219       H73        1.11046  .  S
N220       C84        1.41380  .  S
N220       C87        1.41380  .  S
N220       H0         1.02487  .  S
N221       C93        1.44181  .  S
N221       C90        1.33589  .  S
N222       C97        1.44181  .  S
N222       C94        1.33589  .  S
N223       H1         1.01938  .  S
N223       C103       1.39551  .  S
N223       C100       1.39551  .  S
N224       C115       1.41380  .  S
N224       C112       1.41380  .  S
N224       H18        1.02487  .  S
N225       C118       1.33589  .  S
N225       C121       1.44181  .  S
N226       C122       1.33589  .  S
N226       C125       1.44181  .  S
N227       C131       1.39551  .  S
N227       C128       1.39551  .  S
N227       H19        1.01938  .  S
N228       C158       1.25000  .  S
N229       C159       1.25000  .  S
N230       C178       1.25000  .  S
N231       C179       1.25000  .  S
N232       C198       1.25000  .  S
N233       C199       1.25000  .  S
N234       C218       1.25000  .  S
N235       C219       1.25000  .  S
O236       C105       1.46142  .  S
O236       C104       1.46599  .  S
O237       C106       1.46599  .  S
O237       C107       1.46142  .  S
O238       C109       1.46142  .  S
O238       C108       1.46599  .  S
O239       C111       1.46142  .  S
O239       C110       1.46599  .  S
O240       C133       1.46142  .  S
O240       C132       1.46599  .  S
O241       C135       1.46142  .  S
O241       C134       1.46599  .  S
O242       C136       1.46599  .  S
O242       C137       1.46142  .  S
O243       C139       1.46142  .  S
O243       C138       1.46599  .  S
O244       C149       1.33352  .  S
O245       C148       1.33352  .  S
O246       C169       1.33352  .  S
O247       C168       1.33352  .  S
O248       C189       1.33352  .  S
O249       C188       1.33352  .  S
O250       C209       1.33352  .  S
O251       C208       1.33352  .  S
