data_S4_PTCA_BOH2_CHO_H_H-L2_TPNY_BOH2_OEt_H_H_H_H_H-SQL_A-AA

_audit_creation_date     2025-10-12
_audit_creation_method   pyCOFBuilder

_chemical_name_common                  'S4_PTCA_BOH2_CHO_H_H-L2_TPNY_BOH2_OEt_H_H_H_H_H-SQL_A-AA'
_cell_length_a                           42.371891
_cell_length_b                           42.371891
_cell_length_c                            5.287855
_cell_angle_alpha                        90.00
_cell_angle_beta                         90.00
_cell_angle_gamma                        90.00
_space_group_name_H-M_alt               'P 1'
_space_group_IT_number                  1

loop_
_symmetry_equiv_pos_as_xyz
   'x, y, z'

loop_
   _atom_site_label
   _atom_site_type_symbol
   _atom_site_fract_x
   _atom_site_fract_y
   _atom_site_fract_z
   _atom_site_charge
B0                 B     0.368143509     0.368143509     0.500000000    0.00000
B1                 B     0.131856491     0.131856491     0.500000000    0.00000
B2                 B     0.631856491     0.368143509     0.500000000    0.00000
B3                 B     0.868143509     0.131856491     0.500000000    0.00000
B4                 B     0.868143509     0.868143509     0.500000000    0.00000
B5                 B     0.631856491     0.631856491     0.500000000    0.00000
B6                 B     0.131856491     0.868143509     0.500000000    0.00000
B7                 B     0.368143509     0.631856491     0.500000000    0.00000
H8                 H     0.517973577     0.987605999     0.500000000    0.00000
H9                 H     0.482026423     0.012394001     0.500000000    0.00000
H10                H     0.649382212     0.063921774     0.585290221    0.00000
H11                H     0.436078226     0.149382212     0.585290221    0.00000
H12                H     0.350617788     0.936078226     0.585290221    0.00000
H13                H     0.563921774     0.850617788     0.585290221    0.00000
H14                H     0.339338642     0.076638255     0.500000000    0.00000
H15                H     0.576638255     0.160661358     0.500000000    0.00000
H16                H     0.660661358     0.923361745     0.500000000    0.00000
H17                H     0.423361745     0.839338642     0.500000000    0.00000
H18                H     0.476375062     0.862197317     0.500000000    0.00000
H19                H     0.637802683     0.976375062     0.500000000    0.00000
H20                H     0.523624938     0.137802683     0.500000000    0.00000
H21                H     0.362197317     0.023624938     0.500000000    0.00000
H22                H     0.017973577     0.487605999     0.500000000    0.00000
H23                H     0.982026423     0.512394001     0.500000000    0.00000
H24                H     0.149382212     0.563921774     0.585290221    0.00000
H25                H     0.936078226     0.649382212     0.585290221    0.00000
H26                H     0.850617788     0.436078226     0.585290221    0.00000
H27                H     0.063921774     0.350617788     0.585290221    0.00000
H28                H     0.839338642     0.576638255     0.500000000    0.00000
H29                H     0.076638255     0.660661358     0.500000000    0.00000
H30                H     0.160661358     0.423361745     0.500000000    0.00000
H31                H     0.923361745     0.339338642     0.500000000    0.00000
H32                H     0.976375062     0.362197317     0.500000000    0.00000
H33                H     0.137802683     0.476375062     0.500000000    0.00000
H34                H     0.023624938     0.637802683     0.500000000    0.00000
H35                H     0.862197317     0.523624938     0.500000000    0.00000
H36                H     0.303291937     0.181689530     0.806742127    0.00000
H37                H     0.313659664     0.174369353     0.492344116    0.00000
H38                H     0.268144805     0.135066149     0.800506954    0.00000
H39                H     0.307000290     0.124473987     0.729477828    0.00000
H40                H     0.279089384     0.127626642     0.487547482    0.00000
H41                H     0.196582440     0.318276891     0.805817757    0.00000
H42                H     0.186343711     0.325631549     0.491200055    0.00000
H43                H     0.231731873     0.364900887     0.800836451    0.00000
H44                H     0.192905716     0.375500888     0.728859017    0.00000
H45                H     0.220915704     0.372374718     0.487642928    0.00000
H46                H     0.306864429     0.234783213     0.500000000    0.00000
H47                H     0.193135571     0.265216787     0.500000000    0.00000
H48                H     0.337506110     0.265418336     0.500000000    0.00000
H49                H     0.162493890     0.234581664     0.500000000    0.00000
H50                H     0.379103205     0.307060048     0.500000000    0.00000
H51                H     0.120896795     0.192939952     0.500000000    0.00000
H52                H     0.192935559     0.120877288     0.500000000    0.00000
H53                H     0.307064441     0.379122712     0.500000000    0.00000
H54                H     0.234595309     0.162456872     0.500000000    0.00000
H55                H     0.265404691     0.337543128     0.500000000    0.00000
H56                H     0.818310470     0.303291937     0.806742127    0.00000
H57                H     0.825630647     0.313659664     0.492344116    0.00000
H58                H     0.864933851     0.268144805     0.800506954    0.00000
H59                H     0.875526013     0.307000290     0.729477828    0.00000
H60                H     0.872373358     0.279089384     0.487547482    0.00000
H61                H     0.681723109     0.196582440     0.805817757    0.00000
H62                H     0.674368451     0.186343711     0.491200055    0.00000
H63                H     0.635099113     0.231731873     0.800836451    0.00000
H64                H     0.624499112     0.192905716     0.728859017    0.00000
H65                H     0.627625282     0.220915704     0.487642928    0.00000
H66                H     0.765216787     0.306864429     0.500000000    0.00000
H67                H     0.734783213     0.193135571     0.500000000    0.00000
H68                H     0.734581664     0.337506110     0.500000000    0.00000
H69                H     0.765418336     0.162493890     0.500000000    0.00000
H70                H     0.692939952     0.379103205     0.500000000    0.00000
H71                H     0.807060048     0.120896795     0.500000000    0.00000
H72                H     0.879122712     0.192935559     0.500000000    0.00000
H73                H     0.620877288     0.307064441     0.500000000    0.00000
H74                H     0.837543128     0.234595309     0.500000000    0.00000
H75                H     0.662456872     0.265404691     0.500000000    0.00000
H76                H     0.803291937     0.681689530     0.806742127    0.00000
H77                H     0.813659664     0.674369353     0.492344116    0.00000
H78                H     0.768144805     0.635066149     0.800506954    0.00000
H79                H     0.807000290     0.624473987     0.729477828    0.00000
H80                H     0.779089384     0.627626642     0.487547482    0.00000
H81                H     0.696582440     0.818276891     0.805817757    0.00000
H82                H     0.686343711     0.825631549     0.491200055    0.00000
H83                H     0.731731873     0.864900887     0.800836451    0.00000
H84                H     0.692905716     0.875500888     0.728859017    0.00000
H85                H     0.720915704     0.872374718     0.487642928    0.00000
H86                H     0.806864429     0.734783213     0.500000000    0.00000
H87                H     0.693135571     0.765216787     0.500000000    0.00000
H88                H     0.837506110     0.765418336     0.500000000    0.00000
H89                H     0.662493890     0.734581664     0.500000000    0.00000
H90                H     0.879103205     0.807060048     0.500000000    0.00000
H91                H     0.620896795     0.692939952     0.500000000    0.00000
H92                H     0.692935559     0.620877288     0.500000000    0.00000
H93                H     0.807064441     0.879122712     0.500000000    0.00000
H94                H     0.734595309     0.662456872     0.500000000    0.00000
H95                H     0.765404691     0.837543128     0.500000000    0.00000
H96                H     0.318310470     0.803291937     0.806742127    0.00000
H97                H     0.325630647     0.813659664     0.492344116    0.00000
H98                H     0.364933851     0.768144805     0.800506954    0.00000
H99                H     0.375526013     0.807000290     0.729477828    0.00000
H100               H     0.372373358     0.779089384     0.487547482    0.00000
H101               H     0.181723109     0.696582440     0.805817757    0.00000
H102               H     0.174368451     0.686343711     0.491200055    0.00000
H103               H     0.135099113     0.731731873     0.800836451    0.00000
H104               H     0.124499112     0.692905716     0.728859017    0.00000
H105               H     0.127625282     0.720915704     0.487642928    0.00000
H106               H     0.265216787     0.806864429     0.500000000    0.00000
H107               H     0.234783213     0.693135571     0.500000000    0.00000
H108               H     0.234581664     0.837506110     0.500000000    0.00000
H109               H     0.265418336     0.662493890     0.500000000    0.00000
H110               H     0.192939952     0.879103205     0.500000000    0.00000
H111               H     0.307060048     0.620896795     0.500000000    0.00000
H112               H     0.379122712     0.692935559     0.500000000    0.00000
H113               H     0.120877288     0.807064441     0.500000000    0.00000
H114               H     0.337543128     0.734595309     0.500000000    0.00000
H115               H     0.162456872     0.765404691     0.500000000    0.00000
C116               C     0.537351559     0.941905343     0.500000000    0.00000
C117               C     0.571723766     0.930767754     0.500000000    0.00000
C118               C     0.567533718     0.984704571     0.500000000    0.00000
C119               C     0.484704571     0.932466282     0.500000000    0.00000
C120               C     0.430767754     0.928276234     0.500000000    0.00000
C121               C     0.441905343     0.962648441     0.500000000    0.00000
C122               C     0.558094657     0.037351559     0.500000000    0.00000
C123               C     0.543858790     0.090570941     0.500000000    0.00000
C124               C     0.515295429     0.067533718     0.500000000    0.00000
C125               C     0.432466282     0.015295429     0.500000000    0.00000
C126               C     0.428276234     0.069232246     0.500000000    0.00000
C127               C     0.462648441     0.058094657     0.500000000    0.00000
C128               C     0.456141210     0.909429059     0.500000000    0.00000
C129               C     0.454069621     0.877632175     0.500000000    0.00000
C130               C     0.399358462     0.915330724     0.500000000    0.00000
C131               C     0.424103204     0.863189798     0.500000000    0.00000
C132               C     0.396544515     0.882173949     0.500000000    0.00000
C133               C     0.590570941     0.956141210     0.500000000    0.00000
C134               C     0.622367825     0.954069621     0.500000000    0.00000
C135               C     0.584669276     0.899358462     0.500000000    0.00000
C136               C     0.636810202     0.924103204     0.500000000    0.00000
C137               C     0.617826051     0.896544515     0.500000000    0.00000
C138               C     0.569232246     0.071723766     0.500000000    0.00000
C139               C     0.600641538     0.084669276     0.500000000    0.00000
C140               C     0.603455485     0.117826051     0.500000000    0.00000
C141               C     0.545930379     0.122367825     0.500000000    0.00000
C142               C     0.575896796     0.136810202     0.500000000    0.00000
C143               C     0.409429059     0.043858790     0.500000000    0.00000
C144               C     0.377632175     0.045930379     0.500000000    0.00000
C145               C     0.415330724     0.100641538     0.500000000    0.00000
C146               C     0.363189798     0.075896796     0.500000000    0.00000
C147               C     0.382173949     0.103455485     0.500000000    0.00000
C148               C     0.625607662     0.061039711     0.500000000    0.00000
C149               C     0.438960289     0.125607662     0.500000000    0.00000
C150               C     0.374392338     0.938960289     0.500000000    0.00000
C151               C     0.561039711     0.874392338     0.500000000    0.00000
C152               C     0.037351559     0.441905343     0.500000000    0.00000
C153               C     0.071723766     0.430767754     0.500000000    0.00000
C154               C     0.067533718     0.484704571     0.500000000    0.00000
C155               C     0.984704571     0.432466282     0.500000000    0.00000
C156               C     0.930767754     0.428276234     0.500000000    0.00000
C157               C     0.941905343     0.462648441     0.500000000    0.00000
C158               C     0.058094657     0.537351559     0.500000000    0.00000
C159               C     0.043858790     0.590570941     0.500000000    0.00000
C160               C     0.015295429     0.567533718     0.500000000    0.00000
C161               C     0.932466282     0.515295429     0.500000000    0.00000
C162               C     0.928276234     0.569232246     0.500000000    0.00000
C163               C     0.962648441     0.558094657     0.500000000    0.00000
C164               C     0.956141210     0.409429059     0.500000000    0.00000
C165               C     0.954069621     0.377632175     0.500000000    0.00000
C166               C     0.899358462     0.415330724     0.500000000    0.00000
C167               C     0.924103204     0.363189798     0.500000000    0.00000
C168               C     0.896544515     0.382173949     0.500000000    0.00000
C169               C     0.090570941     0.456141210     0.500000000    0.00000
C170               C     0.122367825     0.454069621     0.500000000    0.00000
C171               C     0.084669276     0.399358462     0.500000000    0.00000
C172               C     0.136810202     0.424103204     0.500000000    0.00000
C173               C     0.117826051     0.396544515     0.500000000    0.00000
C174               C     0.069232246     0.571723766     0.500000000    0.00000
C175               C     0.100641538     0.584669276     0.500000000    0.00000
C176               C     0.103455485     0.617826051     0.500000000    0.00000
C177               C     0.045930379     0.622367825     0.500000000    0.00000
C178               C     0.075896796     0.636810202     0.500000000    0.00000
C179               C     0.909429059     0.543858790     0.500000000    0.00000
C180               C     0.877632175     0.545930379     0.500000000    0.00000
C181               C     0.915330724     0.600641538     0.500000000    0.00000
C182               C     0.863189798     0.575896796     0.500000000    0.00000
C183               C     0.882173949     0.603455485     0.500000000    0.00000
C184               C     0.125607662     0.561039711     0.500000000    0.00000
C185               C     0.938960289     0.625607662     0.500000000    0.00000
C186               C     0.874392338     0.438960289     0.500000000    0.00000
C187               C     0.061039711     0.374392338     0.500000000    0.00000
C188               C     0.313793603     0.354073946     0.500000000    0.00000
C189               C     0.290454473     0.330750139     0.500000000    0.00000
C190               C     0.299014465     0.298953483     0.500000000    0.00000
C191               C     0.330750349     0.290459910     0.500000000    0.00000
C192               C     0.354050018     0.313726274     0.500000000    0.00000
C193               C     0.345551224     0.345572969     0.500000000    0.00000
C194               C     0.273281369     0.273283261     0.500000000    0.00000
C195               C     0.281798924     0.241498446     0.500000000    0.00000
C196               C     0.241492048     0.281828420     0.500000000    0.00000
C197               C     0.258507952     0.218171580     0.500000000    0.00000
C198               C     0.218201076     0.258501554     0.500000000    0.00000
C199               C     0.226718631     0.226716739     0.500000000    0.00000
C200               C     0.200985535     0.201046517     0.500000000    0.00000
C201               C     0.169249651     0.209540090     0.500000000    0.00000
C202               C     0.209545527     0.169249861     0.500000000    0.00000
C203               C     0.145949982     0.186273726     0.500000000    0.00000
C204               C     0.186206397     0.145926054     0.500000000    0.00000
C205               C     0.154448776     0.154427031     0.500000000    0.00000
C206               C     0.295314512     0.172232643     0.630341728    0.00000
C207               C     0.286732447     0.137175000     0.664580908    0.00000
C208               C     0.204632160     0.327753102     0.629695041    0.00000
C209               C     0.213200085     0.362806965     0.664406829    0.00000
C210               C     0.645926054     0.313793603     0.500000000    0.00000
C211               C     0.669249861     0.290454473     0.500000000    0.00000
C212               C     0.701046517     0.299014465     0.500000000    0.00000
C213               C     0.709540090     0.330750349     0.500000000    0.00000
C214               C     0.686273726     0.354050018     0.500000000    0.00000
C215               C     0.654427031     0.345551224     0.500000000    0.00000
C216               C     0.726716739     0.273281369     0.500000000    0.00000
C217               C     0.758501554     0.281798924     0.500000000    0.00000
C218               C     0.718171580     0.241492048     0.500000000    0.00000
C219               C     0.781828420     0.258507952     0.500000000    0.00000
C220               C     0.741498446     0.218201076     0.500000000    0.00000
C221               C     0.773283261     0.226718631     0.500000000    0.00000
C222               C     0.798953483     0.200985535     0.500000000    0.00000
C223               C     0.790459910     0.169249651     0.500000000    0.00000
C224               C     0.830750139     0.209545527     0.500000000    0.00000
C225               C     0.813726274     0.145949982     0.500000000    0.00000
C226               C     0.854073946     0.186206397     0.500000000    0.00000
C227               C     0.845572969     0.154448776     0.500000000    0.00000
C228               C     0.827767357     0.295314512     0.630341728    0.00000
C229               C     0.862825000     0.286732447     0.664580908    0.00000
C230               C     0.672246898     0.204632160     0.629695041    0.00000
C231               C     0.637193035     0.213200085     0.664406829    0.00000
C232               C     0.813793603     0.854073946     0.500000000    0.00000
C233               C     0.790454473     0.830750139     0.500000000    0.00000
C234               C     0.799014465     0.798953483     0.500000000    0.00000
C235               C     0.830750349     0.790459910     0.500000000    0.00000
C236               C     0.854050018     0.813726274     0.500000000    0.00000
C237               C     0.845551224     0.845572969     0.500000000    0.00000
C238               C     0.773281369     0.773283261     0.500000000    0.00000
C239               C     0.781798924     0.741498446     0.500000000    0.00000
C240               C     0.741492048     0.781828420     0.500000000    0.00000
C241               C     0.758507952     0.718171580     0.500000000    0.00000
C242               C     0.718201076     0.758501554     0.500000000    0.00000
C243               C     0.726718631     0.726716739     0.500000000    0.00000
C244               C     0.700985535     0.701046517     0.500000000    0.00000
C245               C     0.669249651     0.709540090     0.500000000    0.00000
C246               C     0.709545527     0.669249861     0.500000000    0.00000
C247               C     0.645949982     0.686273726     0.500000000    0.00000
C248               C     0.686206397     0.645926054     0.500000000    0.00000
C249               C     0.654448776     0.654427031     0.500000000    0.00000
C250               C     0.795314512     0.672232643     0.630341728    0.00000
C251               C     0.786732447     0.637175000     0.664580908    0.00000
C252               C     0.704632160     0.827753102     0.629695041    0.00000
C253               C     0.713200085     0.862806965     0.664406829    0.00000
C254               C     0.145926054     0.813793603     0.500000000    0.00000
C255               C     0.169249861     0.790454473     0.500000000    0.00000
C256               C     0.201046517     0.799014465     0.500000000    0.00000
C257               C     0.209540090     0.830750349     0.500000000    0.00000
C258               C     0.186273726     0.854050018     0.500000000    0.00000
C259               C     0.154427031     0.845551224     0.500000000    0.00000
C260               C     0.226716739     0.773281369     0.500000000    0.00000
C261               C     0.258501554     0.781798924     0.500000000    0.00000
C262               C     0.218171580     0.741492048     0.500000000    0.00000
C263               C     0.281828420     0.758507952     0.500000000    0.00000
C264               C     0.241498446     0.718201076     0.500000000    0.00000
C265               C     0.273283261     0.726718631     0.500000000    0.00000
C266               C     0.298953483     0.700985535     0.500000000    0.00000
C267               C     0.290459910     0.669249651     0.500000000    0.00000
C268               C     0.330750139     0.709545527     0.500000000    0.00000
C269               C     0.313726274     0.645949982     0.500000000    0.00000
C270               C     0.354073946     0.686206397     0.500000000    0.00000
C271               C     0.345572969     0.654448776     0.500000000    0.00000
C272               C     0.327767357     0.795314512     0.630341728    0.00000
C273               C     0.362825000     0.786732447     0.664580908    0.00000
C274               C     0.172246898     0.704632160     0.629695041    0.00000
C275               C     0.137193035     0.713200085     0.664406829    0.00000
N276               N     0.537261573     0.974006026     0.500000000    0.00000
N277               N     0.474006026     0.962738427     0.500000000    0.00000
N278               N     0.525993974     0.037261573     0.500000000    0.00000
N279               N     0.462738427     0.025993974     0.500000000    0.00000
N280               N     0.577149069     0.013694170     0.500000000    0.00000
N281               N     0.513694170     0.922850931     0.500000000    0.00000
N282               N     0.422850931     0.986305830     0.500000000    0.00000
N283               N     0.486305830     0.077149069     0.500000000    0.00000
N284               N     0.037261573     0.474006026     0.500000000    0.00000
N285               N     0.974006026     0.462738427     0.500000000    0.00000
N286               N     0.025993974     0.537261573     0.500000000    0.00000
N287               N     0.962738427     0.525993974     0.500000000    0.00000
N288               N     0.077149069     0.513694170     0.500000000    0.00000
N289               N     0.013694170     0.422850931     0.500000000    0.00000
N290               N     0.922850931     0.486305830     0.500000000    0.00000
N291               N     0.986305830     0.577149069     0.500000000    0.00000
O292               O     0.624123783     0.034577461     0.406367363    0.00000
O293               O     0.465422539     0.124123783     0.406367363    0.00000
O294               O     0.375876217     0.965422539     0.406367363    0.00000
O295               O     0.534577461     0.875876217     0.406367363    0.00000
O296               O     0.124123783     0.534577461     0.406367363    0.00000
O297               O     0.965422539     0.624123783     0.406367363    0.00000
O298               O     0.875876217     0.465422539     0.406367363    0.00000
O299               O     0.034577461     0.375876217     0.406367363    0.00000
O300               O     0.267215638     0.185595500     0.500000000    0.00000
O301               O     0.232784362     0.314404500     0.500000000    0.00000
O302               O     0.814404500     0.267215638     0.500000000    0.00000
O303               O     0.685595500     0.232784362     0.500000000    0.00000
O304               O     0.767215638     0.685595500     0.500000000    0.00000
O305               O     0.732784362     0.814404500     0.500000000    0.00000
O306               O     0.314404500     0.767215638     0.500000000    0.00000
O307               O     0.185595500     0.732784362     0.500000000    0.00000

loop_
_geom_bond_atom_site_label_1
_geom_bond_atom_site_label_2
_geom_bond_distance
_geom_bond_site_symmetry_2
_ccdc_geom_bond_type
B0         C193       1.35314  .  S
B1         C205       1.35314  .  S
B2         C215       1.35314  .  S
B3         C227       1.35314  .  S
B4         C237       1.35314  .  S
B5         C249       1.35314  .  S
B6         C259       1.35314  .  S
B7         C271       1.35314  .  S
H8         N276       1.00000  .  S
H9         N279       1.00000  .  S
H10        C148       1.11046  .  S
H11        C149       1.11046  .  S
H12        C150       1.11046  .  S
H13        C151       1.11046  .  S
H14        C146       1.01111  .  S
H15        C142       1.01111  .  S
H16        C136       1.01111  .  S
H17        C131       1.01111  .  S
H18        C129       1.14934  .  S
H19        C134       1.14934  .  S
H20        C141       1.14934  .  S
H21        C144       1.14934  .  S
H22        N284       1.00000  .  S
H23        N287       1.00000  .  S
H24        C184       1.11046  .  S
H25        C185       1.11046  .  S
H26        C186       1.11046  .  S
H27        C187       1.11046  .  S
H28        C182       1.01111  .  S
H29        C178       1.01111  .  S
H30        C172       1.01111  .  S
H31        C167       1.01111  .  S
H32        C165       1.14934  .  S
H33        C170       1.14934  .  S
H34        C177       1.14934  .  S
H35        C180       1.14934  .  S
H36        C206       1.07000  .  S
H37        C206       1.07000  .  S
H38        C207       1.07000  .  S
H39        C207       1.07000  .  S
H40        C207       1.07000  .  S
H41        C208       1.07000  .  S
H42        C208       1.07000  .  S
H43        C209       1.07000  .  S
H44        C209       1.07000  .  S
H45        C209       1.07000  .  S
H46        C195       1.09953  .  S
H47        C198       1.09953  .  S
H48        C191       1.09899  .  S
H49        C201       1.09899  .  S
H50        C192       1.09849  .  S
H51        C203       1.09849  .  S
H52        C204       1.09900  .  S
H53        C188       1.09900  .  S
H54        C202       1.09974  .  S
H55        C189       1.09974  .  S
H56        C228       1.07000  .  S
H57        C228       1.07000  .  S
H58        C229       1.07000  .  S
H59        C229       1.07000  .  S
H60        C229       1.07000  .  S
H61        C230       1.07000  .  S
H62        C230       1.07000  .  S
H63        C231       1.07000  .  S
H64        C231       1.07000  .  S
H65        C231       1.07000  .  S
H66        C217       1.09953  .  S
H67        C220       1.09953  .  S
H68        C213       1.09899  .  S
H69        C223       1.09899  .  S
H70        C214       1.09849  .  S
H71        C225       1.09849  .  S
H72        C226       1.09900  .  S
H73        C210       1.09900  .  S
H74        C224       1.09974  .  S
H75        C211       1.09974  .  S
H76        C250       1.07000  .  S
H77        C250       1.07000  .  S
H78        C251       1.07000  .  S
H79        C251       1.07000  .  S
H80        C251       1.07000  .  S
H81        C252       1.07000  .  S
H82        C252       1.07000  .  S
H83        C253       1.07000  .  S
H84        C253       1.07000  .  S
H85        C253       1.07000  .  S
H86        C239       1.09953  .  S
H87        C242       1.09953  .  S
H88        C235       1.09899  .  S
H89        C245       1.09899  .  S
H90        C236       1.09849  .  S
H91        C247       1.09849  .  S
H92        C248       1.09900  .  S
H93        C232       1.09900  .  S
H94        C246       1.09974  .  S
H95        C233       1.09974  .  S
H96        C272       1.07000  .  S
H97        C272       1.07000  .  S
H98        C273       1.07000  .  S
H99        C273       1.07000  .  S
H100       C273       1.07000  .  S
H101       C274       1.07000  .  S
H102       C274       1.07000  .  S
H103       C275       1.07000  .  S
H104       C275       1.07000  .  S
H105       C275       1.07000  .  S
H106       C261       1.09953  .  S
H107       C264       1.09953  .  S
H108       C257       1.09899  .  S
H109       C267       1.09899  .  S
H110       C258       1.09849  .  S
H111       C269       1.09849  .  S
H112       C270       1.09900  .  S
H113       C254       1.09900  .  S
H114       C268       1.09974  .  S
H115       C255       1.09974  .  S
C116       N281       1.28712  .  S
C116       C117       1.53097  .  S
C116       N276       1.36017  .  S
C117       C135       1.43948  .  S
C117       C133       1.33927  .  S
C117       C116       1.53097  .  S
C118       C133       1.55487  .  S
C118       N280       1.29415  .  S
C118       N276       1.36044  .  S
C119       C128       1.55487  .  S
C119       N277       1.36044  .  S
C119       N281       1.29415  .  S
C120       C130       1.43948  .  S
C120       C128       1.33927  .  S
C120       C121       1.53097  .  S
C121       C120       1.53097  .  S
C121       N282       1.28712  .  S
C121       N277       1.36017  .  S
C122       N280       1.28712  .  S
C122       N278       1.36017  .  S
C122       C138       1.53097  .  S
C123       C141       1.35015  .  S
C123       C138       1.33927  .  S
C123       C124       1.55487  .  S
C124       N283       1.29415  .  S
C124       N278       1.36044  .  S
C124       C123       1.55487  .  S
C125       N282       1.29415  .  S
C125       N279       1.36044  .  S
C125       C143       1.55487  .  S
C126       C145       1.43948  .  S
C126       C143       1.33927  .  S
C126       C127       1.53097  .  S
C127       N279       1.36017  .  S
C127       C126       1.53097  .  S
C127       N283       1.28712  .  S
C128       C129       1.35015  .  S
C128       C120       1.33927  .  S
C128       C119       1.55487  .  S
C129       C131       1.40951  .  S
C129       C128       1.35015  .  S
C129       H18        1.14934  .  S
C130       C150       1.45655  .  S
C130       C132       1.40997  .  S
C130       C120       1.43948  .  S
C131       C132       1.41796  .  S
C131       C129       1.40951  .  S
C131       H17        1.01111  .  S
C132       C131       1.41796  .  S
C132       C130       1.40997  .  S
C133       C117       1.33927  .  S
C133       C118       1.55487  .  S
C133       C134       1.35015  .  S
C134       C133       1.35015  .  S
C134       C136       1.40951  .  S
C134       H19        1.14934  .  S
C135       C151       1.45655  .  S
C135       C117       1.43948  .  S
C135       C137       1.40997  .  S
C136       C137       1.41796  .  S
C136       C134       1.40951  .  S
C136       H16        1.01111  .  S
C137       C135       1.40997  .  S
C137       C136       1.41796  .  S
C138       C139       1.43948  .  S
C138       C123       1.33927  .  S
C138       C122       1.53097  .  S
C139       C140       1.40997  .  S
C139       C138       1.43948  .  S
C139       C148       1.45655  .  S
C140       C139       1.40997  .  S
C140       C142       1.41796  .  S
C141       C123       1.35015  .  S
C141       C142       1.40951  .  S
C141       H20        1.14934  .  S
C142       C141       1.40951  .  S
C142       C140       1.41796  .  S
C142       H15        1.01111  .  S
C143       C144       1.35015  .  S
C143       C126       1.33927  .  S
C143       C125       1.55487  .  S
C144       C146       1.40951  .  S
C144       H21        1.14934  .  S
C144       C143       1.35015  .  S
C145       C149       1.45655  .  S
C145       C147       1.40997  .  S
C145       C126       1.43948  .  S
C146       H14        1.01111  .  S
C146       C147       1.41796  .  S
C146       C144       1.40951  .  S
C147       C146       1.41796  .  S
C147       C145       1.40997  .  S
C148       C139       1.45655  .  S
C148       O292       1.22732  .  S
C148       H10        1.11046  .  S
C149       O293       1.22732  .  S
C149       C145       1.45655  .  S
C149       H11        1.11046  .  S
C150       H12        1.11046  .  S
C150       C130       1.45655  .  S
C150       O294       1.22732  .  S
C151       O295       1.22732  .  S
C151       C135       1.45655  .  S
C151       H13        1.11046  .  S
C152       N289       1.28712  .  S
C152       N284       1.36017  .  S
C152       C153       1.53097  .  S
C153       C171       1.43948  .  S
C153       C169       1.33927  .  S
C153       C152       1.53097  .  S
C154       N284       1.36044  .  S
C154       C169       1.55487  .  S
C154       N288       1.29415  .  S
C155       C164       1.55487  .  S
C155       N289       1.29415  .  S
C155       N285       1.36044  .  S
C156       C166       1.43948  .  S
C156       C164       1.33927  .  S
C156       C157       1.53097  .  S
C157       C156       1.53097  .  S
C157       N290       1.28712  .  S
C157       N285       1.36017  .  S
C158       N288       1.28712  .  S
C158       N286       1.36017  .  S
C158       C174       1.53097  .  S
C159       C174       1.33927  .  S
C159       C160       1.55487  .  S
C159       C177       1.35015  .  S
C160       N291       1.29415  .  S
C160       N286       1.36044  .  S
C160       C159       1.55487  .  S
C161       N290       1.29415  .  S
C161       C179       1.55487  .  S
C161       N287       1.36044  .  S
C162       C181       1.43948  .  S
C162       C179       1.33927  .  S
C162       C163       1.53097  .  S
C163       C162       1.53097  .  S
C163       N291       1.28712  .  S
C163       N287       1.36017  .  S
C164       C165       1.35015  .  S
C164       C156       1.33927  .  S
C164       C155       1.55487  .  S
C165       C167       1.40951  .  S
C165       C164       1.35015  .  S
C165       H32        1.14934  .  S
C166       C186       1.45655  .  S
C166       C168       1.40997  .  S
C166       C156       1.43948  .  S
C167       H31        1.01111  .  S
C167       C168       1.41796  .  S
C167       C165       1.40951  .  S
C168       C167       1.41796  .  S
C168       C166       1.40997  .  S
C169       C170       1.35015  .  S
C169       C153       1.33927  .  S
C169       C154       1.55487  .  S
C170       C169       1.35015  .  S
C170       C172       1.40951  .  S
C170       H33        1.14934  .  S
C171       C187       1.45655  .  S
C171       C173       1.40997  .  S
C171       C153       1.43948  .  S
C172       C173       1.41796  .  S
C172       C170       1.40951  .  S
C172       H30        1.01111  .  S
C173       C171       1.40997  .  S
C173       C172       1.41796  .  S
C174       C175       1.43948  .  S
C174       C159       1.33927  .  S
C174       C158       1.53097  .  S
C175       C184       1.45655  .  S
C175       C174       1.43948  .  S
C175       C176       1.40997  .  S
C176       C175       1.40997  .  S
C176       C178       1.41796  .  S
C177       C159       1.35015  .  S
C177       C178       1.40951  .  S
C177       H34        1.14934  .  S
C178       C177       1.40951  .  S
C178       C176       1.41796  .  S
C178       H29        1.01111  .  S
C179       C180       1.35015  .  S
C179       C162       1.33927  .  S
C179       C161       1.55487  .  S
C180       C182       1.40951  .  S
C180       C179       1.35015  .  S
C180       H35        1.14934  .  S
C181       C162       1.43948  .  S
C181       C185       1.45655  .  S
C181       C183       1.40997  .  S
C182       H28        1.01111  .  S
C182       C180       1.40951  .  S
C182       C183       1.41796  .  S
C183       C182       1.41796  .  S
C183       C181       1.40997  .  S
C184       O296       1.22732  .  S
C184       C175       1.45655  .  S
C184       H24        1.11046  .  S
C185       C181       1.45655  .  S
C185       H25        1.11046  .  S
C185       O297       1.22732  .  S
C186       O298       1.22732  .  S
C186       C166       1.45655  .  S
C186       H26        1.11046  .  S
C187       H27        1.11046  .  S
C187       O299       1.22732  .  S
C187       C171       1.45655  .  S
C188       C193       1.39301  .  S
C188       C189       1.39809  .  S
C188       H53        1.09900  .  S
C189       C190       1.39525  .  S
C189       C188       1.39809  .  S
C189       H55        1.09974  .  S
C190       C194       1.54012  .  S
C190       C191       1.39204  .  S
C190       C189       1.39525  .  S
C191       C192       1.39519  .  S
C191       C190       1.39204  .  S
C191       H48        1.09899  .  S
C192       C193       1.39663  .  S
C192       C191       1.39519  .  S
C192       H50        1.09849  .  S
C193       C192       1.39663  .  S
C193       C188       1.39301  .  S
C193       B0         1.35314  .  S
C194       C196       1.39479  .  S
C194       C195       1.39430  .  S
C194       C190       1.54012  .  S
C195       C197       1.39674  .  S
C195       H46        1.09953  .  S
C195       C194       1.39430  .  S
C196       O301       1.42877  .  S
C196       C198       1.39674  .  S
C196       C194       1.39479  .  S
C197       C199       1.39479  .  S
C197       O300       1.42877  .  S
C197       C195       1.39674  .  S
C198       C199       1.39430  .  S
C198       C196       1.39674  .  S
C198       H47        1.09953  .  S
C199       C200       1.54012  .  S
C199       C198       1.39430  .  S
C199       C197       1.39479  .  S
C200       C202       1.39525  .  S
C200       C201       1.39204  .  S
C200       C199       1.54012  .  S
C201       C203       1.39519  .  S
C201       C200       1.39204  .  S
C201       H49        1.09899  .  S
C202       C204       1.39809  .  S
C202       C200       1.39525  .  S
C202       H54        1.09974  .  S
C203       H51        1.09849  .  S
C203       C205       1.39663  .  S
C203       C201       1.39519  .  S
C204       H52        1.09900  .  S
C204       C205       1.39301  .  S
C204       C202       1.39809  .  S
C205       C204       1.39301  .  S
C205       C203       1.39663  .  S
C205       B1         1.35314  .  S
C206       O300       1.48767  .  S
C206       C207       1.54000  .  S
C206       H37        1.07000  .  S
C206       H36        1.07000  .  S
C207       H40        1.07000  .  S
C207       H39        1.07000  .  S
C207       C206       1.54000  .  S
C207       H38        1.07000  .  S
C208       O301       1.48767  .  S
C208       C209       1.54000  .  S
C208       H42        1.07000  .  S
C208       H41        1.07000  .  S
C209       C208       1.54000  .  S
C209       H43        1.07000  .  S
C209       H45        1.07000  .  S
C209       H44        1.07000  .  S
C210       C215       1.39301  .  S
C210       C211       1.39809  .  S
C210       H73        1.09900  .  S
C211       C212       1.39525  .  S
C211       C210       1.39809  .  S
C211       H75        1.09974  .  S
C212       C213       1.39204  .  S
C212       C211       1.39525  .  S
C212       C216       1.54012  .  S
C213       C214       1.39519  .  S
C213       C212       1.39204  .  S
C213       H68        1.09899  .  S
C214       C215       1.39663  .  S
C214       C213       1.39519  .  S
C214       H70        1.09849  .  S
C215       C214       1.39663  .  S
C215       C210       1.39301  .  S
C215       B2         1.35314  .  S
C216       C218       1.39479  .  S
C216       C212       1.54012  .  S
C216       C217       1.39430  .  S
C217       C219       1.39674  .  S
C217       C216       1.39430  .  S
C217       H66        1.09953  .  S
C218       O303       1.42877  .  S
C218       C220       1.39674  .  S
C218       C216       1.39479  .  S
C219       C221       1.39479  .  S
C219       O302       1.42877  .  S
C219       C217       1.39674  .  S
C220       C218       1.39674  .  S
C220       C221       1.39430  .  S
C220       H67        1.09953  .  S
C221       C222       1.54012  .  S
C221       C220       1.39430  .  S
C221       C219       1.39479  .  S
C222       C224       1.39525  .  S
C222       C223       1.39204  .  S
C222       C221       1.54012  .  S
C223       C225       1.39519  .  S
C223       C222       1.39204  .  S
C223       H69        1.09899  .  S
C224       C222       1.39525  .  S
C224       H74        1.09974  .  S
C224       C226       1.39809  .  S
C225       H71        1.09849  .  S
C225       C223       1.39519  .  S
C225       C227       1.39663  .  S
C226       C224       1.39809  .  S
C226       C227       1.39301  .  S
C226       H72        1.09900  .  S
C227       C225       1.39663  .  S
C227       C226       1.39301  .  S
C227       B3         1.35314  .  S
C228       O302       1.48767  .  S
C228       H57        1.07000  .  S
C228       H56        1.07000  .  S
C228       C229       1.54000  .  S
C229       C228       1.54000  .  S
C229       H60        1.07000  .  S
C229       H59        1.07000  .  S
C229       H58        1.07000  .  S
C230       O303       1.48767  .  S
C230       C231       1.54000  .  S
C230       H62        1.07000  .  S
C230       H61        1.07000  .  S
C231       C230       1.54000  .  S
C231       H65        1.07000  .  S
C231       H64        1.07000  .  S
C231       H63        1.07000  .  S
C232       C233       1.39809  .  S
C232       H93        1.09900  .  S
C232       C237       1.39301  .  S
C233       C234       1.39525  .  S
C233       H95        1.09974  .  S
C233       C232       1.39809  .  S
C234       C238       1.54012  .  S
C234       C235       1.39204  .  S
C234       C233       1.39525  .  S
C235       C234       1.39204  .  S
C235       H88        1.09899  .  S
C235       C236       1.39519  .  S
C236       C235       1.39519  .  S
C236       H90        1.09849  .  S
C236       C237       1.39663  .  S
C237       C232       1.39301  .  S
C237       C236       1.39663  .  S
C237       B4         1.35314  .  S
C238       C240       1.39479  .  S
C238       C239       1.39430  .  S
C238       C234       1.54012  .  S
C239       C241       1.39674  .  S
C239       C238       1.39430  .  S
C239       H86        1.09953  .  S
C240       C242       1.39674  .  S
C240       O305       1.42877  .  S
C240       C238       1.39479  .  S
C241       O304       1.42877  .  S
C241       C243       1.39479  .  S
C241       C239       1.39674  .  S
C242       H87        1.09953  .  S
C242       C243       1.39430  .  S
C242       C240       1.39674  .  S
C243       C244       1.54012  .  S
C243       C242       1.39430  .  S
C243       C241       1.39479  .  S
C244       C246       1.39525  .  S
C244       C245       1.39204  .  S
C244       C243       1.54012  .  S
C245       C247       1.39519  .  S
C245       C244       1.39204  .  S
C245       H89        1.09899  .  S
C246       C248       1.39809  .  S
C246       C244       1.39525  .  S
C246       H94        1.09974  .  S
C247       C249       1.39663  .  S
C247       C245       1.39519  .  S
C247       H91        1.09849  .  S
C248       C249       1.39301  .  S
C248       C246       1.39809  .  S
C248       H92        1.09900  .  S
C249       C248       1.39301  .  S
C249       C247       1.39663  .  S
C249       B5         1.35314  .  S
C250       O304       1.48767  .  S
C250       C251       1.54000  .  S
C250       H77        1.07000  .  S
C250       H76        1.07000  .  S
C251       C250       1.54000  .  S
C251       H80        1.07000  .  S
C251       H79        1.07000  .  S
C251       H78        1.07000  .  S
C252       H82        1.07000  .  S
C252       H81        1.07000  .  S
C252       C253       1.54000  .  S
C252       O305       1.48767  .  S
C253       C252       1.54000  .  S
C253       H85        1.07000  .  S
C253       H84        1.07000  .  S
C253       H83        1.07000  .  S
C254       H113       1.09900  .  S
C254       C255       1.39809  .  S
C254       C259       1.39301  .  S
C255       C256       1.39525  .  S
C255       C254       1.39809  .  S
C255       H115       1.09974  .  S
C256       C260       1.54012  .  S
C256       C257       1.39204  .  S
C256       C255       1.39525  .  S
C257       C256       1.39204  .  S
C257       H108       1.09899  .  S
C257       C258       1.39519  .  S
C258       C257       1.39519  .  S
C258       C259       1.39663  .  S
C258       H110       1.09849  .  S
C259       C254       1.39301  .  S
C259       C258       1.39663  .  S
C259       B6         1.35314  .  S
C260       C262       1.39479  .  S
C260       C256       1.54012  .  S
C260       C261       1.39430  .  S
C261       C260       1.39430  .  S
C261       C263       1.39674  .  S
C261       H106       1.09953  .  S
C262       C264       1.39674  .  S
C262       O307       1.42877  .  S
C262       C260       1.39479  .  S
C263       O306       1.42877  .  S
C263       C265       1.39479  .  S
C263       C261       1.39674  .  S
C264       H107       1.09953  .  S
C264       C262       1.39674  .  S
C264       C265       1.39430  .  S
C265       C264       1.39430  .  S
C265       C266       1.54012  .  S
C265       C263       1.39479  .  S
C266       C268       1.39525  .  S
C266       C267       1.39204  .  S
C266       C265       1.54012  .  S
C267       C269       1.39519  .  S
C267       C266       1.39204  .  S
C267       H109       1.09899  .  S
C268       C270       1.39809  .  S
C268       C266       1.39525  .  S
C268       H114       1.09974  .  S
C269       C271       1.39663  .  S
C269       C267       1.39519  .  S
C269       H111       1.09849  .  S
C270       C271       1.39301  .  S
C270       C268       1.39809  .  S
C270       H112       1.09900  .  S
C271       C270       1.39301  .  S
C271       C269       1.39663  .  S
C271       B7         1.35314  .  S
C272       O306       1.48767  .  S
C272       C273       1.54000  .  S
C272       H97        1.07000  .  S
C272       H96        1.07000  .  S
C273       C272       1.54000  .  S
C273       H98        1.07000  .  S
C273       H100       1.07000  .  S
C273       H99        1.07000  .  S
C274       C275       1.54000  .  S
C274       H102       1.07000  .  S
C274       H101       1.07000  .  S
C274       O307       1.48767  .  S
C275       H104       1.07000  .  S
C275       H105       1.07000  .  S
C275       C274       1.54000  .  S
C275       H103       1.07000  .  S
N276       C116       1.36017  .  S
N276       C118       1.36044  .  S
N276       H8         1.00000  .  S
N277       C119       1.36044  .  S
N277       C121       1.36017  .  S
N278       C124       1.36044  .  S
N278       C122       1.36017  .  S
N279       C127       1.36017  .  S
N279       C125       1.36044  .  S
N279       H9         1.00000  .  S
N280       C118       1.29415  .  S
N280       C122       1.28712  .  S
N281       C119       1.29415  .  S
N281       C116       1.28712  .  S
N282       C125       1.29415  .  S
N282       C121       1.28712  .  S
N283       C127       1.28712  .  S
N283       C124       1.29415  .  S
N284       C152       1.36017  .  S
N284       C154       1.36044  .  S
N284       H22        1.00000  .  S
N285       C157       1.36017  .  S
N285       C155       1.36044  .  S
N286       C160       1.36044  .  S
N286       C158       1.36017  .  S
N287       C161       1.36044  .  S
N287       C163       1.36017  .  S
N287       H23        1.00000  .  S
N288       C158       1.28712  .  S
N288       C154       1.29415  .  S
N289       C155       1.29415  .  S
N289       C152       1.28712  .  S
N290       C157       1.28712  .  S
N290       C161       1.29415  .  S
N291       C160       1.29415  .  S
N291       C163       1.28712  .  S
O292       C148       1.22732  .  S
O293       C149       1.22732  .  S
O294       C150       1.22732  .  S
O295       C151       1.22732  .  S
O296       C184       1.22732  .  S
O297       C185       1.22732  .  S
O298       C186       1.22732  .  S
O299       C187       1.22732  .  S
O300       C206       1.48767  .  S
O300       C197       1.42877  .  S
O301       C208       1.48767  .  S
O301       C196       1.42877  .  S
O302       C228       1.48767  .  S
O302       C219       1.42877  .  S
O303       C230       1.48767  .  S
O303       C218       1.42877  .  S
O304       C250       1.48767  .  S
O304       C241       1.42877  .  S
O305       C252       1.48767  .  S
O305       C240       1.42877  .  S
O306       C272       1.48767  .  S
O306       C263       1.42877  .  S
O307       C274       1.48767  .  S
O307       C262       1.42877  .  S
