data_S4_PHPR_CHO_SO2H_H_H_H_H_H-L2_BPYB_NH2_NH2_H_H_H_H_H-SQL_A-AA

_audit_creation_date     2025-09-12
_audit_creation_method   pyCOFBuilder

_chemical_name_common                  'S4_PHPR_CHO_SO2H_H_H_H_H_H-L2_BPYB_NH2_NH2_H_H_H_H_H-SQL_A-AA'
_cell_length_a                           55.383301
_cell_length_b                           55.383302
_cell_length_c                            6.674012
_cell_angle_alpha                        90.00
_cell_angle_beta                         90.00
_cell_angle_gamma                        90.00
_space_group_name_H-M_alt               'P 1'
_space_group_IT_number                  1

loop_
_symmetry_equiv_pos_as_xyz
   'x, y, z'

loop_
   _atom_site_label
   _atom_site_type_symbol
   _atom_site_fract_x
   _atom_site_fract_y
   _atom_site_fract_z
   _atom_site_charge
H0                 H     0.497974264     0.019315636     0.499958103    0.00000
H1                 H     0.502025734     0.980684364     0.499957179    0.00000
H2                 H     0.598548116     0.150225717     0.500012113    0.00000
H3                 H     0.401451880     0.849774283     0.499917244    0.00000
H4                 H     0.650225716     0.901451883     0.500044002    0.00000
H5                 H     0.349774281     0.098548117     0.499972904    0.00000
H6                 H     0.658949369     0.096910014     0.239160029    0.00000
H7                 H     0.565052759     0.845498934     0.217164431    0.00000
H8                 H     0.337845570     0.909027835     0.319806327    0.00000
H9                 H     0.405219638     0.160916082     0.285249788    0.00000
H10                H     0.629650153     0.940911027     0.636598754    0.00000
H11                H     0.440909904     0.870350443     0.636604788    0.00000
H12                H     0.370350347     0.059089872     0.636605239    0.00000
H13                H     0.559088749     0.129650248     0.636599204    0.00000
H14                H     0.586264603     0.050344526     0.363308818    0.00000
H15                H     0.550344620     0.913735619     0.363301530    0.00000
H16                H     0.413736741     0.949654782     0.363268335    0.00000
H17                H     0.449654875     0.086263481     0.363275623    0.00000
H18                H     0.531005886     0.094449412     0.636702523    0.00000
H19                H     0.594449317     0.968993890     0.636703547    0.00000
H20                H     0.468992766     0.905551280     0.636714875    0.00000
H21                H     0.405551184     0.031007010     0.636713851    0.00000
H22                H     0.533728096     0.909973090     0.499953965    0.00000
H23                H     0.466271902     0.090026910     0.499954384    0.00000
H24                H     0.409973088     0.966271903     0.499945879    0.00000
H25                H     0.590026910     0.033728097     0.499962469    0.00000
H26                H     0.484877101     0.905033233     0.499951989    0.00000
H27                H     0.594966767     0.984877102     0.499963380    0.00000
H28                H     0.515122897     0.094966767     0.499960547    0.00000
H29                H     0.405033231     0.015122898     0.499949156    0.00000
H30                H     0.997974264     0.519315636     0.499958103    0.00000
H31                H     0.002025734     0.480684364     0.499957179    0.00000
H32                H     0.098548116     0.650225717     0.500012113    0.00000
H33                H     0.901451880     0.349774283     0.499917244    0.00000
H34                H     0.150225716     0.401451883     0.500044002    0.00000
H35                H     0.849774281     0.598548117     0.499972904    0.00000
H36                H     0.158949369     0.596910014     0.239160029    0.00000
H37                H     0.065052759     0.345498934     0.217164431    0.00000
H38                H     0.837845570     0.409027835     0.319806327    0.00000
H39                H     0.905219638     0.660916082     0.285249788    0.00000
H40                H     0.129650153     0.440911027     0.636598754    0.00000
H41                H     0.940909904     0.370350443     0.636604788    0.00000
H42                H     0.870350347     0.559089872     0.636605239    0.00000
H43                H     0.059088749     0.629650248     0.636599204    0.00000
H44                H     0.086264603     0.550344526     0.363308818    0.00000
H45                H     0.050344620     0.413735619     0.363301530    0.00000
H46                H     0.913736741     0.449654782     0.363268335    0.00000
H47                H     0.949654875     0.586263481     0.363275623    0.00000
H48                H     0.031005886     0.594449412     0.636702523    0.00000
H49                H     0.094449317     0.468993890     0.636703547    0.00000
H50                H     0.968992766     0.405551280     0.636714875    0.00000
H51                H     0.905551184     0.531007010     0.636713851    0.00000
H52                H     0.033728096     0.409973090     0.499953965    0.00000
H53                H     0.966271902     0.590026910     0.499954384    0.00000
H54                H     0.909973088     0.466271903     0.499945879    0.00000
H55                H     0.090026910     0.533728097     0.499962469    0.00000
H56                H     0.984877101     0.405033233     0.499951989    0.00000
H57                H     0.094966767     0.484877102     0.499963380    0.00000
H58                H     0.015122897     0.594966767     0.499960547    0.00000
H59                H     0.905033231     0.515122898     0.499949156    0.00000
H60                H     0.194539478     0.108180107     0.500000000    0.00000
H61                H     0.163640879     0.099725181     0.500000000    0.00000
H62                H     0.305460522     0.391819893     0.500000000    0.00000
H63                H     0.336359121     0.400274819     0.500000000    0.00000
H64                H     0.119292202     0.173616684     0.500000000    0.00000
H65                H     0.380707798     0.326383316     0.500000000    0.00000
H66                H     0.206751475     0.150584162     0.500000000    0.00000
H67                H     0.293248525     0.349415838     0.500000000    0.00000
H68                H     0.151115896     0.205699267     0.500000000    0.00000
H69                H     0.348884104     0.294300733     0.500000000    0.00000
H70                H     0.261995871     0.206423814     0.500000000    0.00000
H71                H     0.238004129     0.293576186     0.500000000    0.00000
H72                H     0.206288540     0.261482179     0.500000000    0.00000
H73                H     0.293711460     0.238517821     0.500000000    0.00000
H74                H     0.891819894     0.194539477     0.500000000    0.00000
H75                H     0.900274820     0.163640879     0.500000000    0.00000
H76                H     0.608180106     0.305460523     0.500000000    0.00000
H77                H     0.599725180     0.336359121     0.500000000    0.00000
H78                H     0.826383316     0.119292203     0.500000000    0.00000
H79                H     0.673616684     0.380707797     0.500000000    0.00000
H80                H     0.849415838     0.206751474     0.500000000    0.00000
H81                H     0.650584162     0.293248526     0.500000000    0.00000
H82                H     0.794300733     0.151115896     0.500000000    0.00000
H83                H     0.705699267     0.348884104     0.500000000    0.00000
H84                H     0.793576187     0.261995871     0.500000000    0.00000
H85                H     0.706423813     0.238004129     0.500000000    0.00000
H86                H     0.738517821     0.206288540     0.500000000    0.00000
H87                H     0.761482179     0.293711460     0.500000000    0.00000
H88                H     0.694539478     0.608180107     0.500000000    0.00000
H89                H     0.663640879     0.599725181     0.500000000    0.00000
H90                H     0.805460522     0.891819893     0.500000000    0.00000
H91                H     0.836359121     0.900274819     0.500000000    0.00000
H92                H     0.619292202     0.673616684     0.500000000    0.00000
H93                H     0.880707798     0.826383316     0.500000000    0.00000
H94                H     0.706751475     0.650584162     0.500000000    0.00000
H95                H     0.793248525     0.849415838     0.500000000    0.00000
H96                H     0.651115896     0.705699267     0.500000000    0.00000
H97                H     0.848884104     0.794300733     0.500000000    0.00000
H98                H     0.761995871     0.706423814     0.500000000    0.00000
H99                H     0.738004129     0.793576186     0.500000000    0.00000
H100               H     0.706288540     0.761482179     0.500000000    0.00000
H101               H     0.793711460     0.738517821     0.500000000    0.00000
H102               H     0.391819894     0.694539477     0.500000000    0.00000
H103               H     0.400274820     0.663640879     0.500000000    0.00000
H104               H     0.108180106     0.805460523     0.500000000    0.00000
H105               H     0.099725180     0.836359121     0.500000000    0.00000
H106               H     0.326383316     0.619292203     0.500000000    0.00000
H107               H     0.173616684     0.880707797     0.500000000    0.00000
H108               H     0.349415838     0.706751474     0.500000000    0.00000
H109               H     0.150584162     0.793248526     0.500000000    0.00000
H110               H     0.294300733     0.651115896     0.500000000    0.00000
H111               H     0.205699267     0.848884104     0.500000000    0.00000
H112               H     0.293576187     0.761995871     0.500000000    0.00000
H113               H     0.206423813     0.738004129     0.500000000    0.00000
H114               H     0.238517821     0.706288540     0.500000000    0.00000
H115               H     0.261482179     0.793711460     0.500000000    0.00000
C116               C     0.515575225     0.053845541     0.499960429    0.00000
C117               C     0.504231343     0.078332987     0.499961138    0.00000
C118               C     0.479998921     0.075876097     0.499960063    0.00000
C119               C     0.473800856     0.049610099     0.499958578    0.00000
C120               C     0.451422818     0.039625428     0.499957221    0.00000
C121               C     0.539625428     0.048577180     0.499964569    0.00000
C122               C     0.549610099     0.026199143     0.499963889    0.00000
C123               C     0.575876097     0.020001078     0.499965932    0.00000
C124               C     0.578332986     0.995768656     0.499964401    0.00000
C125               C     0.553845540     0.984424774     0.499961249    0.00000
C126               C     0.446154458     0.015575226     0.499953637    0.00000
C127               C     0.421667012     0.004231344     0.499952136    0.00000
C128               C     0.424123901     0.979998922     0.499952493    0.00000
C129               C     0.450389899     0.973800857     0.499954254    0.00000
C130               C     0.548577180     0.960374572     0.499962436    0.00000
C131               C     0.460374570     0.951422820     0.499955087    0.00000
C132               C     0.526199142     0.950389900     0.499959566    0.00000
C133               C     0.520001077     0.924123903     0.499958362    0.00000
C134               C     0.495768655     0.921667013     0.499955399    0.00000
C135               C     0.484424773     0.946154459     0.499954457    0.00000
C136               C     0.429687899     0.056968407     0.499957180    0.00000
C137               C     0.432175297     0.080278528     0.423433543    0.00000
C138               C     0.407514949     0.049372734     0.576442059    0.00000
C139               C     0.412496465     0.095992277     0.423493409    0.00000
C140               C     0.387823598     0.065083125     0.576377672    0.00000
C141               C     0.390311331     0.088390768     0.499939921    0.00000
C142               C     0.556968406     0.070312099     0.499967798    0.00000
C143               C     0.549372105     0.092485384     0.576441710    0.00000
C144               C     0.580279156     0.067824368     0.423458093    0.00000
C145               C     0.565082497     0.112176734     0.576380283    0.00000
C146               C     0.595992905     0.087503199     0.423520927    0.00000
C147               C     0.588390767     0.109688667     0.499956464    0.00000
C148               C     0.443031592     0.929687901     0.499954136    0.00000
C149               C     0.450627140     0.907515003     0.576440926    0.00000
C150               C     0.419721596     0.932175245     0.423427761    0.00000
C151               C     0.434916749     0.887823652     0.576375714    0.00000
C152               C     0.404007846     0.912496414     0.423486801    0.00000
C153               C     0.411609231     0.890311332     0.499935226    0.00000
C154               C     0.570312099     0.943031593     0.499964754    0.00000
C155               C     0.592485331     0.950627769     0.576440577    0.00000
C156               C     0.567824420     0.919720968     0.423452310    0.00000
C157               C     0.612176681     0.934917378     0.576378325    0.00000
C158               C     0.587503252     0.904007220     0.423514319    0.00000
C159               C     0.609688667     0.911609232     0.499951769    0.00000
C160               C     0.605858103     0.131555349     0.499992676    0.00000
C161               C     0.394141895     0.868444651     0.499967219    0.00000
C162               C     0.631555349     0.894141897     0.499987062    0.00000
C163               C     0.368444650     0.105858103     0.499972833    0.00000
C164               C     0.015575225     0.553845541     0.499960429    0.00000
C165               C     0.004231343     0.578332987     0.499961138    0.00000
C166               C     0.979998921     0.575876097     0.499960063    0.00000
C167               C     0.973800856     0.549610099     0.499958578    0.00000
C168               C     0.951422818     0.539625428     0.499957221    0.00000
C169               C     0.039625428     0.548577180     0.499964569    0.00000
C170               C     0.049610099     0.526199143     0.499963889    0.00000
C171               C     0.075876097     0.520001078     0.499965932    0.00000
C172               C     0.078332986     0.495768656     0.499964401    0.00000
C173               C     0.053845540     0.484424774     0.499961249    0.00000
C174               C     0.946154458     0.515575226     0.499953637    0.00000
C175               C     0.921667012     0.504231344     0.499952136    0.00000
C176               C     0.924123901     0.479998922     0.499952493    0.00000
C177               C     0.950389899     0.473800857     0.499954254    0.00000
C178               C     0.048577180     0.460374572     0.499962436    0.00000
C179               C     0.960374570     0.451422820     0.499955087    0.00000
C180               C     0.026199142     0.450389900     0.499959566    0.00000
C181               C     0.020001077     0.424123903     0.499958362    0.00000
C182               C     0.995768655     0.421667013     0.499955399    0.00000
C183               C     0.984424773     0.446154459     0.499954457    0.00000
C184               C     0.929687899     0.556968407     0.499957180    0.00000
C185               C     0.932175297     0.580278528     0.423433543    0.00000
C186               C     0.907514949     0.549372734     0.576442059    0.00000
C187               C     0.912496465     0.595992277     0.423493409    0.00000
C188               C     0.887823598     0.565083125     0.576377672    0.00000
C189               C     0.890311331     0.588390768     0.499939921    0.00000
C190               C     0.056968406     0.570312099     0.499967798    0.00000
C191               C     0.049372105     0.592485384     0.576441710    0.00000
C192               C     0.080279156     0.567824368     0.423458093    0.00000
C193               C     0.065082497     0.612176734     0.576380283    0.00000
C194               C     0.095992905     0.587503199     0.423520927    0.00000
C195               C     0.088390767     0.609688667     0.499956464    0.00000
C196               C     0.943031592     0.429687901     0.499954136    0.00000
C197               C     0.950627140     0.407515003     0.576440926    0.00000
C198               C     0.919721596     0.432175245     0.423427761    0.00000
C199               C     0.934916749     0.387823652     0.576375714    0.00000
C200               C     0.904007846     0.412496414     0.423486801    0.00000
C201               C     0.911609231     0.390311332     0.499935226    0.00000
C202               C     0.070312099     0.443031593     0.499964754    0.00000
C203               C     0.092485331     0.450627769     0.576440577    0.00000
C204               C     0.067824420     0.419720968     0.423452310    0.00000
C205               C     0.112176681     0.434917378     0.576378325    0.00000
C206               C     0.087503252     0.404007220     0.423514319    0.00000
C207               C     0.109688667     0.411609232     0.499951769    0.00000
C208               C     0.105858103     0.631555349     0.499992676    0.00000
C209               C     0.894141895     0.368444651     0.499967219    0.00000
C210               C     0.131555349     0.394141897     0.499987062    0.00000
C211               C     0.868444650     0.605858103     0.499972833    0.00000
C212               C     0.354703038     0.355803956     0.500000000    0.00000
C213               C     0.361473330     0.331272280     0.500000000    0.00000
C214               C     0.343743350     0.313468995     0.500000000    0.00000
C215               C     0.319111004     0.319897379     0.500000000    0.00000
C216               C     0.312456464     0.344426473     0.500000000    0.00000
C217               C     0.330133907     0.362337858     0.500000000    0.00000
C218               C     0.301139635     0.301732951     0.500000000    0.00000
C219               C     0.285772444     0.286192075     0.500000000    0.00000
C220               C     0.267799639     0.268010849     0.500000000    0.00000
C221               C     0.274494617     0.243475916     0.500000000    0.00000
C222               C     0.243187897     0.274417934     0.500000000    0.00000
C223               C     0.256812103     0.225582066     0.500000000    0.00000
C224               C     0.225505383     0.256524084     0.500000000    0.00000
C225               C     0.232200361     0.231989151     0.500000000    0.00000
C226               C     0.214227556     0.213807925     0.500000000    0.00000
C227               C     0.198860365     0.198267049     0.500000000    0.00000
C228               C     0.180888996     0.180102621     0.500000000    0.00000
C229               C     0.156256650     0.186531005     0.500000000    0.00000
C230               C     0.187543536     0.155573527     0.500000000    0.00000
C231               C     0.138526670     0.168727720     0.500000000    0.00000
C232               C     0.169866093     0.137662142     0.500000000    0.00000
C233               C     0.145296962     0.144196044     0.500000000    0.00000
C234               C     0.644196044     0.354703038     0.500000000    0.00000
C235               C     0.668727720     0.361473330     0.500000000    0.00000
C236               C     0.686531005     0.343743350     0.500000000    0.00000
C237               C     0.680102621     0.319111004     0.500000000    0.00000
C238               C     0.655573527     0.312456464     0.500000000    0.00000
C239               C     0.637662142     0.330133907     0.500000000    0.00000
C240               C     0.698267049     0.301139635     0.500000000    0.00000
C241               C     0.713807925     0.285772444     0.500000000    0.00000
C242               C     0.731989151     0.267799639     0.500000000    0.00000
C243               C     0.756524084     0.274494617     0.500000000    0.00000
C244               C     0.725582066     0.243187897     0.500000000    0.00000
C245               C     0.774417934     0.256812103     0.500000000    0.00000
C246               C     0.743475916     0.225505383     0.500000000    0.00000
C247               C     0.768010849     0.232200361     0.500000000    0.00000
C248               C     0.786192075     0.214227556     0.500000000    0.00000
C249               C     0.801732951     0.198860365     0.500000000    0.00000
C250               C     0.819897379     0.180888996     0.500000000    0.00000
C251               C     0.813468995     0.156256650     0.500000000    0.00000
C252               C     0.844426473     0.187543536     0.500000000    0.00000
C253               C     0.831272280     0.138526670     0.500000000    0.00000
C254               C     0.862337858     0.169866093     0.500000000    0.00000
C255               C     0.855803956     0.145296962     0.500000000    0.00000
C256               C     0.854703038     0.855803956     0.500000000    0.00000
C257               C     0.861473330     0.831272280     0.500000000    0.00000
C258               C     0.843743350     0.813468995     0.500000000    0.00000
C259               C     0.819111004     0.819897379     0.500000000    0.00000
C260               C     0.812456464     0.844426473     0.500000000    0.00000
C261               C     0.830133907     0.862337858     0.500000000    0.00000
C262               C     0.801139635     0.801732951     0.500000000    0.00000
C263               C     0.785772444     0.786192075     0.500000000    0.00000
C264               C     0.767799639     0.768010849     0.500000000    0.00000
C265               C     0.774494617     0.743475916     0.500000000    0.00000
C266               C     0.743187897     0.774417934     0.500000000    0.00000
C267               C     0.756812103     0.725582066     0.500000000    0.00000
C268               C     0.725505383     0.756524084     0.500000000    0.00000
C269               C     0.732200361     0.731989151     0.500000000    0.00000
C270               C     0.714227556     0.713807925     0.500000000    0.00000
C271               C     0.698860365     0.698267049     0.500000000    0.00000
C272               C     0.680888996     0.680102621     0.500000000    0.00000
C273               C     0.656256650     0.686531005     0.500000000    0.00000
C274               C     0.687543536     0.655573527     0.500000000    0.00000
C275               C     0.638526670     0.668727720     0.500000000    0.00000
C276               C     0.669866093     0.637662142     0.500000000    0.00000
C277               C     0.645296962     0.644196044     0.500000000    0.00000
C278               C     0.144196044     0.854703038     0.500000000    0.00000
C279               C     0.168727720     0.861473330     0.500000000    0.00000
C280               C     0.186531005     0.843743350     0.500000000    0.00000
C281               C     0.180102621     0.819111004     0.500000000    0.00000
C282               C     0.155573527     0.812456464     0.500000000    0.00000
C283               C     0.137662142     0.830133907     0.500000000    0.00000
C284               C     0.198267049     0.801139635     0.500000000    0.00000
C285               C     0.213807925     0.785772444     0.500000000    0.00000
C286               C     0.231989151     0.767799639     0.500000000    0.00000
C287               C     0.256524084     0.774494617     0.500000000    0.00000
C288               C     0.225582066     0.743187897     0.500000000    0.00000
C289               C     0.274417934     0.756812103     0.500000000    0.00000
C290               C     0.243475916     0.725505383     0.500000000    0.00000
C291               C     0.268010849     0.732200361     0.500000000    0.00000
C292               C     0.286192075     0.714227556     0.500000000    0.00000
C293               C     0.301732951     0.698860365     0.500000000    0.00000
C294               C     0.319897379     0.680888996     0.500000000    0.00000
C295               C     0.313468995     0.656256650     0.500000000    0.00000
C296               C     0.344426473     0.687543536     0.500000000    0.00000
C297               C     0.331272280     0.638526670     0.500000000    0.00000
C298               C     0.362337858     0.669866093     0.500000000    0.00000
C299               C     0.355803956     0.645296962     0.500000000    0.00000
S300               S     0.627233273     0.084167168     0.321158153    0.00000
S301               S     0.584167291     0.872767019     0.321147876    0.00000
S302               S     0.372768486     0.915831927     0.321101688    0.00000
S303               S     0.415832049     0.127231804     0.321111965    0.00000
S304               S     0.127233273     0.584167168     0.321158153    0.00000
S305               S     0.084167291     0.372767019     0.321147876    0.00000
S306               S     0.872768486     0.415831927     0.321101688    0.00000
S307               S     0.915832049     0.627231804     0.321111965    0.00000
N308               N     0.496152932     0.037279525     0.499958879    0.00000
N309               N     0.537279524     0.003847067     0.499961090    0.00000
N310               N     0.462720474     0.996152933     0.499954874    0.00000
N311               N     0.503847066     0.962720475     0.499957086    0.00000
N312               N     0.996152932     0.537279525     0.499958879    0.00000
N313               N     0.037279524     0.503847067     0.499961090    0.00000
N314               N     0.962720474     0.496152933     0.499954874    0.00000
N315               N     0.003847066     0.462720475     0.499957086    0.00000
N316               N     0.371826760     0.371826760     0.500000000    0.00000
N317               N     0.128173240     0.128173240     0.500000000    0.00000
N318               N     0.176680525     0.112758744     0.500000000    0.00000
N319               N     0.323319475     0.387241256     0.500000000    0.00000
N320               N     0.628173240     0.371826760     0.500000000    0.00000
N321               N     0.871826760     0.128173240     0.500000000    0.00000
N322               N     0.887241256     0.176680524     0.500000000    0.00000
N323               N     0.612758744     0.323319476     0.500000000    0.00000
N324               N     0.871826760     0.871826760     0.500000000    0.00000
N325               N     0.628173240     0.628173240     0.500000000    0.00000
N326               N     0.676680525     0.612758744     0.500000000    0.00000
N327               N     0.823319475     0.887241256     0.500000000    0.00000
N328               N     0.128173240     0.871826760     0.500000000    0.00000
N329               N     0.371826760     0.628173240     0.500000000    0.00000
N330               N     0.387241256     0.676680524     0.500000000    0.00000
N331               N     0.112758744     0.823319476     0.500000000    0.00000
O332               O     0.636714565     0.065293805     0.265500196    0.00000
O333               O     0.644264662     0.103299675     0.294199007    0.00000
O334               O     0.600569748     0.858334698     0.290375001    0.00000
O335               O     0.561920555     0.861543445     0.264994678    0.00000
O336               O     0.366833634     0.928104786     0.176120547    0.00000
O337               O     0.351577952     0.904441488     0.398900463    0.00000
O338               O     0.432332393     0.134534865     0.214360185    0.00000
O339               O     0.399482742     0.146817550     0.354070168    0.00000
O340               O     0.136714565     0.565293805     0.265500196    0.00000
O341               O     0.144264662     0.603299675     0.294199007    0.00000
O342               O     0.100569748     0.358334698     0.290375001    0.00000
O343               O     0.061920555     0.361543445     0.264994678    0.00000
O344               O     0.866833634     0.428104786     0.176120547    0.00000
O345               O     0.851577952     0.404441488     0.398900463    0.00000
O346               O     0.932332393     0.634534865     0.214360185    0.00000
O347               O     0.899482742     0.646817550     0.354070168    0.00000

loop_
_geom_bond_atom_site_label_1
_geom_bond_atom_site_label_2
_geom_bond_distance
_geom_bond_site_symmetry_2
_ccdc_geom_bond_type
H0         N308       1.00000  .  S
H1         N311       1.00000  .  S
H2         C160       1.11046  .  S
H3         C161       1.11046  .  S
H4         C162       1.11046  .  S
H5         C163       1.11046  .  S
H6         O333       0.96000  .  S
H7         O335       0.96000  .  S
H8         O337       0.96000  .  S
H9         O339       0.96000  .  S
H10        C157       1.09920  .  S
H11        C151       1.09920  .  S
H12        C140       1.09920  .  S
H13        C145       1.09920  .  S
H14        C144       1.09920  .  S
H15        C156       1.09920  .  S
H16        C150       1.09920  .  S
H17        C137       1.09920  .  S
H18        C143       1.09920  .  S
H19        C155       1.09920  .  S
H20        C149       1.09920  .  S
H21        C138       1.09920  .  S
H22        C133       1.09188  .  S
H23        C118       1.09188  .  S
H24        C128       1.09188  .  S
H25        C123       1.09188  .  S
H26        C134       1.10115  .  S
H27        C124       1.10115  .  S
H28        C117       1.10115  .  S
H29        C127       1.10115  .  S
H30        N312       1.00000  .  S
H31        N315       1.00000  .  S
H32        C208       1.11046  .  S
H33        C209       1.11046  .  S
H34        C210       1.11046  .  S
H35        C211       1.11046  .  S
H36        O341       0.96000  .  S
H37        O343       0.96000  .  S
H38        O345       0.96000  .  S
H39        O347       0.96000  .  S
H40        C205       1.09920  .  S
H41        C199       1.09920  .  S
H42        C188       1.09920  .  S
H43        C193       1.09920  .  S
H44        C192       1.09920  .  S
H45        C204       1.09920  .  S
H46        C198       1.09920  .  S
H47        C185       1.09920  .  S
H48        C191       1.09920  .  S
H49        C203       1.09920  .  S
H50        C197       1.09920  .  S
H51        C186       1.09920  .  S
H52        C181       1.09188  .  S
H53        C166       1.09188  .  S
H54        C176       1.09188  .  S
H55        C171       1.09188  .  S
H56        C182       1.10115  .  S
H57        C172       1.10115  .  S
H58        C165       1.10115  .  S
H59        C175       1.10115  .  S
H60        N318       1.02108  .  S
H61        N318       1.02108  .  S
H62        N319       1.02108  .  S
H63        N319       1.02108  .  S
H64        C231       1.09914  .  S
H65        C213       1.09914  .  S
H66        C230       1.09910  .  S
H67        C216       1.09910  .  S
H68        C229       1.09912  .  S
H69        C214       1.09912  .  S
H70        C223       1.09920  .  S
H71        C222       1.09920  .  S
H72        C224       1.09915  .  S
H73        C221       1.09915  .  S
H74        N322       1.02108  .  S
H75        N322       1.02108  .  S
H76        N323       1.02108  .  S
H77        N323       1.02108  .  S
H78        C253       1.09914  .  S
H79        C235       1.09914  .  S
H80        C252       1.09910  .  S
H81        C238       1.09910  .  S
H82        C251       1.09912  .  S
H83        C236       1.09912  .  S
H84        C245       1.09920  .  S
H85        C244       1.09920  .  S
H86        C246       1.09915  .  S
H87        C243       1.09915  .  S
H88        N326       1.02108  .  S
H89        N326       1.02108  .  S
H90        N327       1.02108  .  S
H91        N327       1.02108  .  S
H92        C275       1.09914  .  S
H93        C257       1.09914  .  S
H94        C274       1.09910  .  S
H95        C260       1.09910  .  S
H96        C273       1.09912  .  S
H97        C258       1.09912  .  S
H98        C267       1.09920  .  S
H99        C266       1.09920  .  S
H100       C268       1.09915  .  S
H101       C265       1.09915  .  S
H102       N330       1.02108  .  S
H103       N330       1.02108  .  S
H104       N331       1.02108  .  S
H105       N331       1.02108  .  S
H106       C297       1.09914  .  S
H107       C279       1.09914  .  S
H108       C296       1.09910  .  S
H109       C282       1.09910  .  S
H110       C295       1.09912  .  S
H111       C280       1.09912  .  S
H112       C289       1.09920  .  S
H113       C288       1.09920  .  S
H114       C290       1.09915  .  S
H115       C287       1.09915  .  S
C116       N308       1.41380  .  S
C116       C121       1.36356  .  S
C116       C117       1.49465  .  S
C117       C118       1.34895  .  S
C117       C116       1.49465  .  S
C117       H28        1.10115  .  S
C118       C119       1.49465  .  S
C118       C117       1.34895  .  S
C118       H23        1.09188  .  S
C119       C120       1.35714  .  S
C119       N308       1.41380  .  S
C119       C118       1.49465  .  S
C120       C136       1.54000  .  S
C120       C126       1.36356  .  S
C120       C119       1.35714  .  S
C121       C116       1.36356  .  S
C121       C142       1.54000  .  S
C121       C122       1.35714  .  S
C122       N309       1.41380  .  S
C122       C121       1.35714  .  S
C122       C123       1.49465  .  S
C123       C124       1.34895  .  S
C123       C122       1.49465  .  S
C123       H25        1.09188  .  S
C124       C125       1.49465  .  S
C124       H27        1.10115  .  S
C124       C123       1.34895  .  S
C125       N309       1.41380  .  S
C125       C130       1.36356  .  S
C125       C124       1.49465  .  S
C126       C127       1.49465  .  S
C126       C120       1.36356  .  S
C126       N310       1.41380  .  S
C127       C128       1.34895  .  S
C127       C126       1.49465  .  S
C127       H29        1.10115  .  S
C128       C129       1.49465  .  S
C128       H24        1.09188  .  S
C128       C127       1.34895  .  S
C129       C128       1.49465  .  S
C129       N310       1.41380  .  S
C129       C131       1.35714  .  S
C130       C132       1.35714  .  S
C130       C154       1.54000  .  S
C130       C125       1.36356  .  S
C131       C148       1.54000  .  S
C131       C129       1.35714  .  S
C131       C135       1.36356  .  S
C132       N311       1.41380  .  S
C132       C133       1.49465  .  S
C132       C130       1.35714  .  S
C133       C134       1.34895  .  S
C133       C132       1.49465  .  S
C133       H22        1.09188  .  S
C134       H26        1.10115  .  S
C134       C135       1.49465  .  S
C134       C133       1.34895  .  S
C135       N311       1.41380  .  S
C135       C134       1.49465  .  S
C135       C131       1.36356  .  S
C136       C138       1.39483  .  S
C136       C137       1.39516  .  S
C136       C120       1.54000  .  S
C137       C136       1.39516  .  S
C137       H17        1.09920  .  S
C137       C139       1.39471  .  S
C138       C140       1.39514  .  S
C138       C136       1.39483  .  S
C138       H21        1.09920  .  S
C139       C141       1.39543  .  S
C139       C137       1.39471  .  S
C139       S303       1.86934  .  S
C140       C141       1.39483  .  S
C140       C138       1.39514  .  S
C140       H12        1.09920  .  S
C141       C140       1.39483  .  S
C141       C163       1.55000  .  S
C141       C139       1.39543  .  S
C142       C121       1.54000  .  S
C142       C144       1.39516  .  S
C142       C143       1.39483  .  S
C143       H18        1.09920  .  S
C143       C142       1.39483  .  S
C143       C145       1.39514  .  S
C144       C146       1.39471  .  S
C144       C142       1.39516  .  S
C144       H14        1.09920  .  S
C145       C143       1.39514  .  S
C145       C147       1.39483  .  S
C145       H13        1.09920  .  S
C146       S300       1.86934  .  S
C146       C144       1.39471  .  S
C146       C147       1.39543  .  S
C147       C146       1.39543  .  S
C147       C160       1.55000  .  S
C147       C145       1.39483  .  S
C148       C150       1.39516  .  S
C148       C149       1.39483  .  S
C148       C131       1.54000  .  S
C149       C151       1.39514  .  S
C149       C148       1.39483  .  S
C149       H20        1.09920  .  S
C150       C152       1.39471  .  S
C150       C148       1.39516  .  S
C150       H16        1.09920  .  S
C151       C153       1.39483  .  S
C151       H11        1.09920  .  S
C151       C149       1.39514  .  S
C152       C153       1.39543  .  S
C152       S302       1.86934  .  S
C152       C150       1.39471  .  S
C153       C161       1.55000  .  S
C153       C151       1.39483  .  S
C153       C152       1.39543  .  S
C154       C156       1.39516  .  S
C154       C155       1.39483  .  S
C154       C130       1.54000  .  S
C155       C157       1.39514  .  S
C155       C154       1.39483  .  S
C155       H19        1.09920  .  S
C156       C158       1.39471  .  S
C156       C154       1.39516  .  S
C156       H15        1.09920  .  S
C157       C159       1.39483  .  S
C157       C155       1.39514  .  S
C157       H10        1.09920  .  S
C158       S301       1.86934  .  S
C158       C159       1.39543  .  S
C158       C156       1.39471  .  S
C159       C162       1.55000  .  S
C159       C158       1.39543  .  S
C159       C157       1.39483  .  S
C160       C147       1.55000  .  S
C160       H2         1.11046  .  S
C161       C153       1.55000  .  S
C161       H3         1.11046  .  S
C162       C159       1.55000  .  S
C162       H4         1.11046  .  S
C163       H5         1.11046  .  S
C163       C141       1.55000  .  S
C164       N312       1.41380  .  S
C164       C169       1.36356  .  S
C164       C165       1.49465  .  S
C165       C166       1.34895  .  S
C165       C164       1.49465  .  S
C165       H58        1.10115  .  S
C166       C167       1.49465  .  S
C166       H53        1.09188  .  S
C166       C165       1.34895  .  S
C167       C168       1.35714  .  S
C167       C166       1.49465  .  S
C167       N312       1.41380  .  S
C168       C174       1.36356  .  S
C168       C184       1.54000  .  S
C168       C167       1.35714  .  S
C169       C170       1.35714  .  S
C169       C190       1.54000  .  S
C169       C164       1.36356  .  S
C170       N313       1.41380  .  S
C170       C171       1.49465  .  S
C170       C169       1.35714  .  S
C171       C172       1.34895  .  S
C171       C170       1.49465  .  S
C171       H55        1.09188  .  S
C172       C173       1.49465  .  S
C172       C171       1.34895  .  S
C172       H57        1.10115  .  S
C173       N313       1.41380  .  S
C173       C178       1.36356  .  S
C173       C172       1.49465  .  S
C174       N314       1.41380  .  S
C174       C175       1.49465  .  S
C174       C168       1.36356  .  S
C175       C176       1.34895  .  S
C175       C174       1.49465  .  S
C175       H59        1.10115  .  S
C176       C177       1.49465  .  S
C176       C175       1.34895  .  S
C176       H54        1.09188  .  S
C177       C179       1.35714  .  S
C177       N314       1.41380  .  S
C177       C176       1.49465  .  S
C178       C202       1.54000  .  S
C178       C180       1.35714  .  S
C178       C173       1.36356  .  S
C179       C196       1.54000  .  S
C179       C183       1.36356  .  S
C179       C177       1.35714  .  S
C180       C181       1.49465  .  S
C180       N315       1.41380  .  S
C180       C178       1.35714  .  S
C181       C182       1.34895  .  S
C181       C180       1.49465  .  S
C181       H52        1.09188  .  S
C182       C183       1.49465  .  S
C182       H56        1.10115  .  S
C182       C181       1.34895  .  S
C183       C179       1.36356  .  S
C183       C182       1.49465  .  S
C183       N315       1.41380  .  S
C184       C168       1.54000  .  S
C184       C186       1.39483  .  S
C184       C185       1.39516  .  S
C185       C187       1.39471  .  S
C185       C184       1.39516  .  S
C185       H47        1.09920  .  S
C186       C188       1.39514  .  S
C186       H51        1.09920  .  S
C186       C184       1.39483  .  S
C187       C189       1.39543  .  S
C187       S307       1.86934  .  S
C187       C185       1.39471  .  S
C188       C189       1.39483  .  S
C188       H42        1.09920  .  S
C188       C186       1.39514  .  S
C189       C211       1.55000  .  S
C189       C188       1.39483  .  S
C189       C187       1.39543  .  S
C190       C192       1.39516  .  S
C190       C191       1.39483  .  S
C190       C169       1.54000  .  S
C191       C193       1.39514  .  S
C191       C190       1.39483  .  S
C191       H48        1.09920  .  S
C192       C190       1.39516  .  S
C192       H44        1.09920  .  S
C192       C194       1.39471  .  S
C193       C195       1.39483  .  S
C193       C191       1.39514  .  S
C193       H43        1.09920  .  S
C194       C195       1.39543  .  S
C194       C192       1.39471  .  S
C194       S304       1.86934  .  S
C195       C193       1.39483  .  S
C195       C208       1.55000  .  S
C195       C194       1.39543  .  S
C196       C198       1.39516  .  S
C196       C197       1.39483  .  S
C196       C179       1.54000  .  S
C197       C199       1.39514  .  S
C197       C196       1.39483  .  S
C197       H50        1.09920  .  S
C198       C200       1.39471  .  S
C198       C196       1.39516  .  S
C198       H46        1.09920  .  S
C199       C201       1.39483  .  S
C199       C197       1.39514  .  S
C199       H41        1.09920  .  S
C200       S306       1.86934  .  S
C200       C201       1.39543  .  S
C200       C198       1.39471  .  S
C201       C209       1.55000  .  S
C201       C200       1.39543  .  S
C201       C199       1.39483  .  S
C202       C204       1.39516  .  S
C202       C178       1.54000  .  S
C202       C203       1.39483  .  S
C203       C202       1.39483  .  S
C203       C205       1.39514  .  S
C203       H49        1.09920  .  S
C204       C206       1.39471  .  S
C204       C202       1.39516  .  S
C204       H45        1.09920  .  S
C205       C207       1.39483  .  S
C205       C203       1.39514  .  S
C205       H40        1.09920  .  S
C206       S305       1.86934  .  S
C206       C204       1.39471  .  S
C206       C207       1.39543  .  S
C207       C206       1.39543  .  S
C207       C210       1.55000  .  S
C207       C205       1.39483  .  S
C208       C195       1.55000  .  S
C208       H32        1.11046  .  S
C209       H33        1.11046  .  S
C209       C201       1.55000  .  S
C210       C207       1.55000  .  S
C210       H34        1.11046  .  S
C211       C189       1.55000  .  S
C211       H35        1.11046  .  S
C212       C217       1.40802  .  S
C212       C213       1.40944  .  S
C212       N316       1.29880  .  S
C213       C214       1.39155  .  S
C213       C212       1.40944  .  S
C213       H65        1.09914  .  S
C214       C215       1.40991  .  S
C214       C213       1.39155  .  S
C214       H69        1.09912  .  S
C215       C218       1.41517  .  S
C215       C216       1.40761  .  S
C215       C214       1.40991  .  S
C216       C217       1.39376  .  S
C216       C215       1.40761  .  S
C216       H67        1.09910  .  S
C217       C216       1.39376  .  S
C217       C212       1.40802  .  S
C217       N319       1.42994  .  S
C218       C219       1.21044  .  S
C218       C215       1.41517  .  S
C219       C220       1.41588  .  S
C219       C218       1.21044  .  S
C220       C222       1.40851  .  S
C220       C221       1.40851  .  S
C220       C219       1.41588  .  S
C221       C223       1.39326  .  S
C221       C220       1.40851  .  S
C221       H73        1.09915  .  S
C222       C224       1.39326  .  S
C222       C220       1.40851  .  S
C222       H71        1.09920  .  S
C223       C225       1.40851  .  S
C223       H70        1.09920  .  S
C223       C221       1.39326  .  S
C224       C225       1.40851  .  S
C224       C222       1.39326  .  S
C224       H72        1.09915  .  S
C225       C226       1.41588  .  S
C225       C224       1.40851  .  S
C225       C223       1.40851  .  S
C226       C227       1.21044  .  S
C226       C225       1.41588  .  S
C227       C228       1.41517  .  S
C227       C226       1.21044  .  S
C228       C229       1.40991  .  S
C228       C230       1.40761  .  S
C228       C227       1.41517  .  S
C229       C231       1.39155  .  S
C229       C228       1.40991  .  S
C229       H68        1.09912  .  S
C230       C232       1.39376  .  S
C230       C228       1.40761  .  S
C230       H66        1.09910  .  S
C231       C233       1.40944  .  S
C231       H64        1.09914  .  S
C231       C229       1.39155  .  S
C232       N318       1.42994  .  S
C232       C233       1.40802  .  S
C232       C230       1.39376  .  S
C233       N317       1.29880  .  S
C233       C232       1.40802  .  S
C233       C231       1.40944  .  S
C234       N320       1.29880  .  S
C234       C239       1.40802  .  S
C234       C235       1.40944  .  S
C235       C236       1.39155  .  S
C235       C234       1.40944  .  S
C235       H79        1.09914  .  S
C236       C237       1.40991  .  S
C236       C235       1.39155  .  S
C236       H83        1.09912  .  S
C237       C240       1.41517  .  S
C237       C238       1.40761  .  S
C237       C236       1.40991  .  S
C238       C239       1.39376  .  S
C238       C237       1.40761  .  S
C238       H81        1.09910  .  S
C239       N323       1.42994  .  S
C239       C238       1.39376  .  S
C239       C234       1.40802  .  S
C240       C241       1.21044  .  S
C240       C237       1.41517  .  S
C241       C240       1.21044  .  S
C241       C242       1.41588  .  S
C242       C241       1.41588  .  S
C242       C244       1.40851  .  S
C242       C243       1.40851  .  S
C243       C245       1.39326  .  S
C243       C242       1.40851  .  S
C243       H87        1.09915  .  S
C244       H85        1.09920  .  S
C244       C246       1.39326  .  S
C244       C242       1.40851  .  S
C245       C247       1.40851  .  S
C245       C243       1.39326  .  S
C245       H84        1.09920  .  S
C246       C247       1.40851  .  S
C246       C244       1.39326  .  S
C246       H86        1.09915  .  S
C247       C248       1.41588  .  S
C247       C246       1.40851  .  S
C247       C245       1.40851  .  S
C248       C249       1.21044  .  S
C248       C247       1.41588  .  S
C249       C248       1.21044  .  S
C249       C250       1.41517  .  S
C250       C251       1.40991  .  S
C250       C249       1.41517  .  S
C250       C252       1.40761  .  S
C251       H82        1.09912  .  S
C251       C253       1.39155  .  S
C251       C250       1.40991  .  S
C252       C254       1.39376  .  S
C252       C250       1.40761  .  S
C252       H80        1.09910  .  S
C253       C251       1.39155  .  S
C253       C255       1.40944  .  S
C253       H78        1.09914  .  S
C254       N322       1.42994  .  S
C254       C255       1.40802  .  S
C254       C252       1.39376  .  S
C255       N321       1.29880  .  S
C255       C254       1.40802  .  S
C255       C253       1.40944  .  S
C256       N324       1.29880  .  S
C256       C261       1.40802  .  S
C256       C257       1.40944  .  S
C257       C258       1.39155  .  S
C257       C256       1.40944  .  S
C257       H93        1.09914  .  S
C258       H97        1.09912  .  S
C258       C259       1.40991  .  S
C258       C257       1.39155  .  S
C259       C262       1.41517  .  S
C259       C260       1.40761  .  S
C259       C258       1.40991  .  S
C260       H95        1.09910  .  S
C260       C261       1.39376  .  S
C260       C259       1.40761  .  S
C261       C260       1.39376  .  S
C261       N327       1.42994  .  S
C261       C256       1.40802  .  S
C262       C263       1.21044  .  S
C262       C259       1.41517  .  S
C263       C264       1.41588  .  S
C263       C262       1.21044  .  S
C264       C266       1.40851  .  S
C264       C265       1.40851  .  S
C264       C263       1.41588  .  S
C265       C267       1.39326  .  S
C265       C264       1.40851  .  S
C265       H101       1.09915  .  S
C266       C268       1.39326  .  S
C266       C264       1.40851  .  S
C266       H99        1.09920  .  S
C267       H98        1.09920  .  S
C267       C269       1.40851  .  S
C267       C265       1.39326  .  S
C268       H100       1.09915  .  S
C268       C269       1.40851  .  S
C268       C266       1.39326  .  S
C269       C270       1.41588  .  S
C269       C267       1.40851  .  S
C269       C268       1.40851  .  S
C270       C271       1.21044  .  S
C270       C269       1.41588  .  S
C271       C272       1.41517  .  S
C271       C270       1.21044  .  S
C272       C274       1.40761  .  S
C272       C273       1.40991  .  S
C272       C271       1.41517  .  S
C273       C275       1.39155  .  S
C273       C272       1.40991  .  S
C273       H96        1.09912  .  S
C274       C276       1.39376  .  S
C274       C272       1.40761  .  S
C274       H94        1.09910  .  S
C275       H92        1.09914  .  S
C275       C277       1.40944  .  S
C275       C273       1.39155  .  S
C276       N326       1.42994  .  S
C276       C277       1.40802  .  S
C276       C274       1.39376  .  S
C277       N325       1.29880  .  S
C277       C276       1.40802  .  S
C277       C275       1.40944  .  S
C278       N328       1.29880  .  S
C278       C283       1.40802  .  S
C278       C279       1.40944  .  S
C279       C278       1.40944  .  S
C279       H107       1.09914  .  S
C279       C280       1.39155  .  S
C280       C281       1.40991  .  S
C280       C279       1.39155  .  S
C280       H111       1.09912  .  S
C281       C282       1.40761  .  S
C281       C284       1.41517  .  S
C281       C280       1.40991  .  S
C282       H109       1.09910  .  S
C282       C283       1.39376  .  S
C282       C281       1.40761  .  S
C283       C282       1.39376  .  S
C283       N331       1.42994  .  S
C283       C278       1.40802  .  S
C284       C281       1.41517  .  S
C284       C285       1.21044  .  S
C285       C286       1.41588  .  S
C285       C284       1.21044  .  S
C286       C288       1.40851  .  S
C286       C287       1.40851  .  S
C286       C285       1.41588  .  S
C287       C286       1.40851  .  S
C287       H115       1.09915  .  S
C287       C289       1.39326  .  S
C288       C290       1.39326  .  S
C288       C286       1.40851  .  S
C288       H113       1.09920  .  S
C289       C291       1.40851  .  S
C289       C287       1.39326  .  S
C289       H112       1.09920  .  S
C290       H114       1.09915  .  S
C290       C291       1.40851  .  S
C290       C288       1.39326  .  S
C291       C290       1.40851  .  S
C291       C292       1.41588  .  S
C291       C289       1.40851  .  S
C292       C291       1.41588  .  S
C292       C293       1.21044  .  S
C293       C294       1.41517  .  S
C293       C292       1.21044  .  S
C294       C296       1.40761  .  S
C294       C295       1.40991  .  S
C294       C293       1.41517  .  S
C295       C297       1.39155  .  S
C295       C294       1.40991  .  S
C295       H110       1.09912  .  S
C296       C298       1.39376  .  S
C296       C294       1.40761  .  S
C296       H108       1.09910  .  S
C297       H106       1.09914  .  S
C297       C299       1.40944  .  S
C297       C295       1.39155  .  S
C298       C299       1.40802  .  S
C298       C296       1.39376  .  S
C298       N330       1.42994  .  S
C299       C298       1.40802  .  S
C299       C297       1.40944  .  S
C299       N329       1.29880  .  S
S300       C146       1.86934  .  S
S300       O332       1.22732  .  S
S300       O333       1.43000  .  S
S301       O335       1.43000  .  S
S301       O334       1.22732  .  S
S301       C158       1.86934  .  S
S302       O337       1.43000  .  S
S302       O336       1.22732  .  S
S302       C152       1.86934  .  S
S303       O339       1.43000  .  S
S303       O338       1.22732  .  S
S303       C139       1.86934  .  S
S304       O341       1.43000  .  S
S304       O340       1.22732  .  S
S304       C194       1.86934  .  S
S305       O343       1.43000  .  S
S305       C206       1.86934  .  S
S305       O342       1.22732  .  S
S306       O345       1.43000  .  S
S306       O344       1.22732  .  S
S306       C200       1.86934  .  S
S307       O347       1.43000  .  S
S307       O346       1.22732  .  S
S307       C187       1.86934  .  S
N308       C119       1.41380  .  S
N308       C116       1.41380  .  S
N308       H0         1.00000  .  S
N309       C125       1.41380  .  S
N309       C122       1.41380  .  S
N310       C129       1.41380  .  S
N310       C126       1.41380  .  S
N311       C135       1.41380  .  S
N311       C132       1.41380  .  S
N311       H1         1.00000  .  S
N312       C167       1.41380  .  S
N312       H30        1.00000  .  S
N312       C164       1.41380  .  S
N313       C173       1.41380  .  S
N313       C170       1.41380  .  S
N314       C177       1.41380  .  S
N314       C174       1.41380  .  S
N315       C183       1.41380  .  S
N315       C180       1.41380  .  S
N315       H31        1.00000  .  S
N316       C212       1.29880  .  S
N317       C233       1.29880  .  S
N318       C232       1.42994  .  S
N318       H61        1.02108  .  S
N318       H60        1.02108  .  S
N319       C217       1.42994  .  S
N319       H63        1.02108  .  S
N319       H62        1.02108  .  S
N320       C234       1.29880  .  S
N321       C255       1.29880  .  S
N322       C254       1.42994  .  S
N322       H75        1.02108  .  S
N322       H74        1.02108  .  S
N323       H77        1.02108  .  S
N323       H76        1.02108  .  S
N323       C239       1.42994  .  S
N324       C256       1.29880  .  S
N325       C277       1.29880  .  S
N326       H89        1.02108  .  S
N326       H88        1.02108  .  S
N326       C276       1.42994  .  S
N327       H90        1.02108  .  S
N327       C261       1.42994  .  S
N327       H91        1.02108  .  S
N328       C278       1.29880  .  S
N329       C299       1.29880  .  S
N330       C298       1.42994  .  S
N330       H103       1.02108  .  S
N330       H102       1.02108  .  S
N331       H104       1.02108  .  S
N331       C283       1.42994  .  S
N331       H105       1.02108  .  S
O332       S300       1.22732  .  S
O333       S300       1.43000  .  S
O333       H6         0.96000  .  S
O334       S301       1.22732  .  S
O335       S301       1.43000  .  S
O335       H7         0.96000  .  S
O336       S302       1.22732  .  S
O337       H8         0.96000  .  S
O337       S302       1.43000  .  S
O338       S303       1.22732  .  S
O339       S303       1.43000  .  S
O339       H9         0.96000  .  S
O340       S304       1.22732  .  S
O341       S304       1.43000  .  S
O341       H36        0.96000  .  S
O342       S305       1.22732  .  S
O343       H37        0.96000  .  S
O343       S305       1.43000  .  S
O344       S306       1.22732  .  S
O345       S306       1.43000  .  S
O345       H38        0.96000  .  S
O346       S307       1.22732  .  S
O347       S307       1.43000  .  S
O347       H39        0.96000  .  S
