data_S4_PHPR_NH2_F_H_H_H_H_H-L2_TPNY_CHO_NO_H_H_H_H_H-SQL_A-AA

_audit_creation_date     2025-10-12
_audit_creation_method   pyCOFBuilder

_chemical_name_common                  'S4_PHPR_NH2_F_H_H_H_H_H-L2_TPNY_CHO_NO_H_H_H_H_H-SQL_A-AA'
_cell_length_a                           48.297454
_cell_length_b                           48.297454
_cell_length_c                            5.510947
_cell_angle_alpha                        90.00
_cell_angle_beta                         90.00
_cell_angle_gamma                        90.00
_space_group_name_H-M_alt               'P 1'
_space_group_IT_number                  1

loop_
_symmetry_equiv_pos_as_xyz
   'x, y, z'

loop_
   _atom_site_label
   _atom_site_type_symbol
   _atom_site_fract_x
   _atom_site_fract_y
   _atom_site_fract_z
   _atom_site_charge
H0                 H     0.500071875     0.022270845     0.499979646    0.00000
H1                 H     0.499928125     0.977729155     0.499979647    0.00000
H2                 H     0.640525078     0.916650681     0.665448097    0.00000
H3                 H     0.416649610     0.859475983     0.665476467    0.00000
H4                 H     0.359475983     0.083350390     0.665476467    0.00000
H5                 H     0.583349320     0.140525078     0.665448096    0.00000
H6                 H     0.604553925     0.046760813     0.334481267    0.00000
H7                 H     0.546760813     0.895446075     0.334481270    0.00000
H8                 H     0.395447145     0.953238125     0.334452909    0.00000
H9                 H     0.453238125     0.104552855     0.334452906    0.00000
H10                H     0.546993234     0.103856025     0.665577320    0.00000
H11                H     0.603856025     0.953006766     0.665577320    0.00000
H12                H     0.453005695     0.896145037     0.665605687    0.00000
H13                H     0.396145037     0.046994305     0.665605687    0.00000
H14                H     0.527353202     0.893205180     0.499975449    0.00000
H15                H     0.472646798     0.106794820     0.499975448    0.00000
H16                H     0.393205180     0.972646798     0.499975452    0.00000
H17                H     0.606794820     0.027353202     0.499975445    0.00000
H18                H     0.471050828     0.893596059     0.499977986    0.00000
H19                H     0.606403941     0.971050828     0.499977981    0.00000
H20                H     0.528949172     0.106403941     0.499977982    0.00000
H21                H     0.393596059     0.028949172     0.499977987    0.00000
H22                H     0.000071875     0.522270845     0.499979646    0.00000
H23                H     0.999928125     0.477729155     0.499979647    0.00000
H24                H     0.140525078     0.416650681     0.665448097    0.00000
H25                H     0.916649610     0.359475983     0.665476467    0.00000
H26                H     0.859475983     0.583350390     0.665476467    0.00000
H27                H     0.083349320     0.640525078     0.665448096    0.00000
H28                H     0.104553925     0.546760813     0.334481267    0.00000
H29                H     0.046760813     0.395446075     0.334481270    0.00000
H30                H     0.895447145     0.453238125     0.334452909    0.00000
H31                H     0.953238125     0.604552855     0.334452906    0.00000
H32                H     0.046993234     0.603856025     0.665577320    0.00000
H33                H     0.103856025     0.453006766     0.665577320    0.00000
H34                H     0.953005695     0.396145037     0.665605687    0.00000
H35                H     0.896145037     0.546994305     0.665605687    0.00000
H36                H     0.027353202     0.393205180     0.499975449    0.00000
H37                H     0.972646798     0.606794820     0.499975448    0.00000
H38                H     0.893205180     0.472646798     0.499975452    0.00000
H39                H     0.106794820     0.527353202     0.499975445    0.00000
H40                H     0.971050828     0.393596059     0.499977986    0.00000
H41                H     0.106403941     0.471050828     0.499977981    0.00000
H42                H     0.028949172     0.606403941     0.499977982    0.00000
H43                H     0.893596059     0.528949172     0.499977987    0.00000
H44                H     0.332165058     0.391195259     0.500000000    0.00000
H45                H     0.167834942     0.108804741     0.500000000    0.00000
H46                H     0.301238619     0.243549075     0.500000000    0.00000
H47                H     0.198761381     0.256450925     0.500000000    0.00000
H48                H     0.324221747     0.273827469     0.500000000    0.00000
H49                H     0.175778253     0.226172531     0.500000000    0.00000
H50                H     0.355415725     0.314977907     0.500000000    0.00000
H51                H     0.144584275     0.185022093     0.500000000    0.00000
H52                H     0.215785196     0.130969694     0.500000000    0.00000
H53                H     0.284214804     0.369030306     0.500000000    0.00000
H54                H     0.247041036     0.172073597     0.500000000    0.00000
H55                H     0.252958964     0.327926403     0.500000000    0.00000
H56                H     0.608804741     0.332165058     0.500000000    0.00000
H57                H     0.891195259     0.167834942     0.500000000    0.00000
H58                H     0.756450925     0.301238619     0.500000000    0.00000
H59                H     0.743549075     0.198761381     0.500000000    0.00000
H60                H     0.726172531     0.324221747     0.500000000    0.00000
H61                H     0.773827469     0.175778253     0.500000000    0.00000
H62                H     0.685022093     0.355415725     0.500000000    0.00000
H63                H     0.814977907     0.144584275     0.500000000    0.00000
H64                H     0.869030306     0.215785196     0.500000000    0.00000
H65                H     0.630969694     0.284214804     0.500000000    0.00000
H66                H     0.827926403     0.247041036     0.500000000    0.00000
H67                H     0.672073597     0.252958964     0.500000000    0.00000
H68                H     0.832165058     0.891195259     0.500000000    0.00000
H69                H     0.667834942     0.608804741     0.500000000    0.00000
H70                H     0.801238619     0.743549075     0.500000000    0.00000
H71                H     0.698761381     0.756450925     0.500000000    0.00000
H72                H     0.824221747     0.773827469     0.500000000    0.00000
H73                H     0.675778253     0.726172531     0.500000000    0.00000
H74                H     0.855415725     0.814977907     0.500000000    0.00000
H75                H     0.644584275     0.685022093     0.500000000    0.00000
H76                H     0.715785196     0.630969694     0.500000000    0.00000
H77                H     0.784214804     0.869030306     0.500000000    0.00000
H78                H     0.747041036     0.672073597     0.500000000    0.00000
H79                H     0.752958964     0.827926403     0.500000000    0.00000
H80                H     0.108804741     0.832165058     0.500000000    0.00000
H81                H     0.391195259     0.667834942     0.500000000    0.00000
H82                H     0.256450925     0.801238619     0.500000000    0.00000
H83                H     0.243549075     0.698761381     0.500000000    0.00000
H84                H     0.226172531     0.824221747     0.500000000    0.00000
H85                H     0.273827469     0.675778253     0.500000000    0.00000
H86                H     0.185022093     0.855415725     0.500000000    0.00000
H87                H     0.314977907     0.644584275     0.500000000    0.00000
H88                H     0.369030306     0.715785196     0.500000000    0.00000
H89                H     0.130969694     0.784214804     0.500000000    0.00000
H90                H     0.327926403     0.747041036     0.500000000    0.00000
H91                H     0.172073597     0.752958964     0.500000000    0.00000
C92                C     0.524395185     0.059467263     0.499979406    0.00000
C93                C     0.514481369     0.088783109     0.499980405    0.00000
C94                C     0.486551909     0.088969610     0.499981549    0.00000
C95                C     0.476247477     0.059788774     0.499981380    0.00000
C96                C     0.449504068     0.051164488     0.499982297    0.00000
C97                C     0.551164488     0.050495932     0.499982294    0.00000
C98                C     0.559788774     0.023752523     0.499981377    0.00000
C99                C     0.588969610     0.013448091     0.499981547    0.00000
C100               C     0.588783109     0.985518631     0.499980404    0.00000
C101               C     0.559467263     0.975604815     0.499979405    0.00000
C102               C     0.440532737     0.024395185     0.499979409    0.00000
C103               C     0.411216891     0.014481369     0.499980409    0.00000
C104               C     0.411030390     0.986551909     0.499981553    0.00000
C105               C     0.440211226     0.976247477     0.499981382    0.00000
C106               C     0.550495932     0.948835512     0.499982295    0.00000
C107               C     0.448835512     0.949504068     0.499982298    0.00000
C108               C     0.523752523     0.940211226     0.499981379    0.00000
C109               C     0.513448091     0.911030390     0.499981551    0.00000
C110               C     0.485518631     0.911216891     0.499980408    0.00000
C111               C     0.475604815     0.940532737     0.499979408    0.00000
C112               C     0.426862972     0.073616239     0.499983676    0.00000
C113               C     0.432572474     0.099884624     0.407308858    0.00000
C114               C     0.400648011     0.067690314     0.592612850    0.00000
C115               C     0.412074593     0.120225458     0.407382652    0.00000
C116               C     0.380135443     0.088028864     0.592536168    0.00000
C117               C     0.385845022     0.114294382     0.499965363    0.00000
C118               C     0.573616239     0.073137028     0.499983672    0.00000
C119               C     0.567689715     0.099352583     0.592596985    0.00000
C120               C     0.599885223     0.067426931     0.407324716    0.00000
C121               C     0.588028265     0.119865151     0.592520300    0.00000
C122               C     0.620226057     0.087924813     0.407398518    0.00000
C123               C     0.614294382     0.114154978     0.499965357    0.00000
C124               C     0.426383761     0.926862972     0.499983678    0.00000
C125               C     0.432309686     0.900648011     0.592612850    0.00000
C126               C     0.400115376     0.932572474     0.407308861    0.00000
C127               C     0.411971136     0.880135443     0.592536169    0.00000
C128               C     0.379774542     0.912074593     0.407382655    0.00000
C129               C     0.385705618     0.885845022     0.499965365    0.00000
C130               C     0.573137028     0.926383761     0.499983673    0.00000
C131               C     0.599352583     0.932310285     0.592596985    0.00000
C132               C     0.567426931     0.900114777     0.407324719    0.00000
C133               C     0.619865151     0.911971735     0.592520301    0.00000
C134               C     0.587924813     0.879773943     0.407398521    0.00000
C135               C     0.614154978     0.885705618     0.499965360    0.00000
C136               C     0.024395185     0.559467263     0.499979406    0.00000
C137               C     0.014481369     0.588783109     0.499980405    0.00000
C138               C     0.986551909     0.588969610     0.499981549    0.00000
C139               C     0.976247477     0.559788774     0.499981380    0.00000
C140               C     0.949504068     0.551164488     0.499982297    0.00000
C141               C     0.051164488     0.550495932     0.499982294    0.00000
C142               C     0.059788774     0.523752523     0.499981377    0.00000
C143               C     0.088969610     0.513448091     0.499981547    0.00000
C144               C     0.088783109     0.485518631     0.499980404    0.00000
C145               C     0.059467263     0.475604815     0.499979405    0.00000
C146               C     0.940532737     0.524395185     0.499979409    0.00000
C147               C     0.911216891     0.514481369     0.499980409    0.00000
C148               C     0.911030390     0.486551909     0.499981553    0.00000
C149               C     0.940211226     0.476247477     0.499981382    0.00000
C150               C     0.050495932     0.448835512     0.499982295    0.00000
C151               C     0.948835512     0.449504068     0.499982298    0.00000
C152               C     0.023752523     0.440211226     0.499981379    0.00000
C153               C     0.013448091     0.411030390     0.499981551    0.00000
C154               C     0.985518631     0.411216891     0.499980408    0.00000
C155               C     0.975604815     0.440532737     0.499979408    0.00000
C156               C     0.926862972     0.573616239     0.499983676    0.00000
C157               C     0.932572474     0.599884624     0.407308858    0.00000
C158               C     0.900648011     0.567690314     0.592612850    0.00000
C159               C     0.912074593     0.620225458     0.407382652    0.00000
C160               C     0.880135443     0.588028864     0.592536168    0.00000
C161               C     0.885845022     0.614294382     0.499965363    0.00000
C162               C     0.073616239     0.573137028     0.499983672    0.00000
C163               C     0.067689715     0.599352583     0.592596985    0.00000
C164               C     0.099885223     0.567426931     0.407324716    0.00000
C165               C     0.088028265     0.619865151     0.592520300    0.00000
C166               C     0.120226057     0.587924813     0.407398518    0.00000
C167               C     0.114294382     0.614154978     0.499965357    0.00000
C168               C     0.926383761     0.426862972     0.499983678    0.00000
C169               C     0.932309686     0.400648011     0.592612850    0.00000
C170               C     0.900115376     0.432572474     0.407308861    0.00000
C171               C     0.911971136     0.380135443     0.592536169    0.00000
C172               C     0.879774542     0.412074593     0.407382655    0.00000
C173               C     0.885705618     0.385845022     0.499965365    0.00000
C174               C     0.073137028     0.426383761     0.499983673    0.00000
C175               C     0.099352583     0.432310285     0.592596985    0.00000
C176               C     0.067426931     0.400114777     0.407324719    0.00000
C177               C     0.119865151     0.411971735     0.592520301    0.00000
C178               C     0.087924813     0.379773943     0.407398521    0.00000
C179               C     0.114154978     0.385705618     0.499965360    0.00000
C180               C     0.293048168     0.348060112     0.500000000    0.00000
C181               C     0.275541168     0.325006668     0.500000000    0.00000
C182               C     0.286769851     0.298389464     0.500000000    0.00000
C183               C     0.315366119     0.294788241     0.500000000    0.00000
C184               C     0.332845665     0.317787056     0.500000000    0.00000
C185               C     0.321664212     0.344455045     0.500000000    0.00000
C186               C     0.267461626     0.273011321     0.500000000    0.00000
C187               C     0.278652013     0.246399352     0.500000000    0.00000
C188               C     0.238812765     0.276651013     0.500000000    0.00000
C189               C     0.261187235     0.223348987     0.500000000    0.00000
C190               C     0.221347987     0.253600648     0.500000000    0.00000
C191               C     0.232538374     0.226988679     0.500000000    0.00000
C192               C     0.213230149     0.201610536     0.500000000    0.00000
C193               C     0.184633881     0.205211759     0.500000000    0.00000
C194               C     0.224458832     0.174993332     0.500000000    0.00000
C195               C     0.167154335     0.182212944     0.500000000    0.00000
C196               C     0.206951832     0.151939888     0.500000000    0.00000
C197               C     0.178335788     0.155544955     0.500000000    0.00000
C198               C     0.341066641     0.369996295     0.500000000    0.00000
C199               C     0.158933359     0.130003705     0.500000000    0.00000
C200               C     0.651939888     0.293048168     0.500000000    0.00000
C201               C     0.674993332     0.275541168     0.500000000    0.00000
C202               C     0.701610536     0.286769851     0.500000000    0.00000
C203               C     0.705211759     0.315366119     0.500000000    0.00000
C204               C     0.682212944     0.332845665     0.500000000    0.00000
C205               C     0.655544955     0.321664212     0.500000000    0.00000
C206               C     0.726988679     0.267461626     0.500000000    0.00000
C207               C     0.753600648     0.278652013     0.500000000    0.00000
C208               C     0.723348987     0.238812765     0.500000000    0.00000
C209               C     0.776651013     0.261187235     0.500000000    0.00000
C210               C     0.746399352     0.221347987     0.500000000    0.00000
C211               C     0.773011321     0.232538374     0.500000000    0.00000
C212               C     0.798389464     0.213230149     0.500000000    0.00000
C213               C     0.794788241     0.184633881     0.500000000    0.00000
C214               C     0.825006668     0.224458832     0.500000000    0.00000
C215               C     0.817787056     0.167154335     0.500000000    0.00000
C216               C     0.848060112     0.206951832     0.500000000    0.00000
C217               C     0.844455045     0.178335788     0.500000000    0.00000
C218               C     0.630003705     0.341066641     0.500000000    0.00000
C219               C     0.869996295     0.158933359     0.500000000    0.00000
C220               C     0.793048168     0.848060112     0.500000000    0.00000
C221               C     0.775541168     0.825006668     0.500000000    0.00000
C222               C     0.786769851     0.798389464     0.500000000    0.00000
C223               C     0.815366119     0.794788241     0.500000000    0.00000
C224               C     0.832845665     0.817787056     0.500000000    0.00000
C225               C     0.821664212     0.844455045     0.500000000    0.00000
C226               C     0.767461626     0.773011321     0.500000000    0.00000
C227               C     0.778652013     0.746399352     0.500000000    0.00000
C228               C     0.738812765     0.776651013     0.500000000    0.00000
C229               C     0.761187235     0.723348987     0.500000000    0.00000
C230               C     0.721347987     0.753600648     0.500000000    0.00000
C231               C     0.732538374     0.726988679     0.500000000    0.00000
C232               C     0.713230149     0.701610536     0.500000000    0.00000
C233               C     0.684633881     0.705211759     0.500000000    0.00000
C234               C     0.724458832     0.674993332     0.500000000    0.00000
C235               C     0.667154335     0.682212944     0.500000000    0.00000
C236               C     0.706951832     0.651939888     0.500000000    0.00000
C237               C     0.678335788     0.655544955     0.500000000    0.00000
C238               C     0.841066641     0.869996295     0.500000000    0.00000
C239               C     0.658933359     0.630003705     0.500000000    0.00000
C240               C     0.151939888     0.793048168     0.500000000    0.00000
C241               C     0.174993332     0.775541168     0.500000000    0.00000
C242               C     0.201610536     0.786769851     0.500000000    0.00000
C243               C     0.205211759     0.815366119     0.500000000    0.00000
C244               C     0.182212944     0.832845665     0.500000000    0.00000
C245               C     0.155544955     0.821664212     0.500000000    0.00000
C246               C     0.226988679     0.767461626     0.500000000    0.00000
C247               C     0.253600648     0.778652013     0.500000000    0.00000
C248               C     0.223348987     0.738812765     0.500000000    0.00000
C249               C     0.276651013     0.761187235     0.500000000    0.00000
C250               C     0.246399352     0.721347987     0.500000000    0.00000
C251               C     0.273011321     0.732538374     0.500000000    0.00000
C252               C     0.298389464     0.713230149     0.500000000    0.00000
C253               C     0.294788241     0.684633881     0.500000000    0.00000
C254               C     0.325006668     0.724458832     0.500000000    0.00000
C255               C     0.317787056     0.667154335     0.500000000    0.00000
C256               C     0.348060112     0.706951832     0.500000000    0.00000
C257               C     0.344455045     0.678335788     0.500000000    0.00000
C258               C     0.130003705     0.841066641     0.500000000    0.00000
C259               C     0.369996295     0.658933359     0.500000000    0.00000
N260               N     0.500210132     0.042975408     0.499980060    0.00000
N261               N     0.542975408     0.999789868     0.499980059    0.00000
N262               N     0.457024592     0.000210132     0.499980062    0.00000
N263               N     0.499789868     0.957024592     0.499980061    0.00000
N264               N     0.000210132     0.542975408     0.499980060    0.00000
N265               N     0.042975408     0.499789868     0.499980059    0.00000
N266               N     0.957024592     0.500210132     0.499980062    0.00000
N267               N     0.999789868     0.457024592     0.499980061    0.00000
N268               N     0.366742585     0.366742585     0.500000000    0.00000
N269               N     0.133257415     0.133257415     0.500000000    0.00000
N270               N     0.272828607     0.195615827     0.500000000    0.00000
N271               N     0.227171393     0.304384173     0.500000000    0.00000
N272               N     0.633257415     0.366742585     0.500000000    0.00000
N273               N     0.866742585     0.133257415     0.500000000    0.00000
N274               N     0.804384173     0.272828607     0.500000000    0.00000
N275               N     0.695615827     0.227171393     0.500000000    0.00000
N276               N     0.866742585     0.866742585     0.500000000    0.00000
N277               N     0.633257415     0.633257415     0.500000000    0.00000
N278               N     0.772828607     0.695615827     0.500000000    0.00000
N279               N     0.727171393     0.804384173     0.500000000    0.00000
N280               N     0.133257415     0.866742585     0.500000000    0.00000
N281               N     0.366742585     0.633257415     0.500000000    0.00000
N282               N     0.304384173     0.772828607     0.500000000    0.00000
N283               N     0.195615827     0.727171393     0.500000000    0.00000
O284               O     0.297311791     0.193060202     0.500000000    0.00000
O285               O     0.202688209     0.306939798     0.500000000    0.00000
O286               O     0.806939798     0.297311791     0.500000000    0.00000
O287               O     0.693060202     0.202688209     0.500000000    0.00000
O288               O     0.797311791     0.693060202     0.500000000    0.00000
O289               O     0.702688209     0.806939798     0.500000000    0.00000
O290               O     0.306939798     0.797311791     0.500000000    0.00000
O291               O     0.193060202     0.702688209     0.500000000    0.00000
F292               F     0.645362957     0.082459092     0.318881950    0.00000
F293               F     0.582459092     0.854637043     0.318881955    0.00000
F294               F     0.354638215     0.917539746     0.318850911    0.00000
F295               F     0.417539746     0.145361785     0.318850906    0.00000
F296               F     0.145362957     0.582459092     0.318881950    0.00000
F297               F     0.082459092     0.354637043     0.318881955    0.00000
F298               F     0.854638215     0.417539746     0.318850911    0.00000
F299               F     0.917539746     0.645361785     0.318850906    0.00000

loop_
_geom_bond_atom_site_label_1
_geom_bond_atom_site_label_2
_geom_bond_distance
_geom_bond_site_symmetry_2
_ccdc_geom_bond_type
H0         N260       1.00000  .  S
H1         N263       1.00000  .  S
H2         C133       1.09920  .  S
H3         C127       1.09920  .  S
H4         C116       1.09920  .  S
H5         C121       1.09920  .  S
H6         C120       1.09920  .  S
H7         C132       1.09920  .  S
H8         C126       1.09920  .  S
H9         C113       1.09920  .  S
H10        C119       1.09920  .  S
H11        C131       1.09920  .  S
H12        C125       1.09920  .  S
H13        C114       1.09920  .  S
H14        C109       1.09188  .  S
H15        C94        1.09188  .  S
H16        C104       1.09188  .  S
H17        C99        1.09188  .  S
H18        C110       1.10115  .  S
H19        C100       1.10115  .  S
H20        C93        1.10115  .  S
H21        C103       1.10115  .  S
H22        N264       1.00000  .  S
H23        N267       1.00000  .  S
H24        C177       1.09920  .  S
H25        C171       1.09920  .  S
H26        C160       1.09920  .  S
H27        C165       1.09920  .  S
H28        C164       1.09920  .  S
H29        C176       1.09920  .  S
H30        C170       1.09920  .  S
H31        C157       1.09920  .  S
H32        C163       1.09920  .  S
H33        C175       1.09920  .  S
H34        C169       1.09920  .  S
H35        C158       1.09920  .  S
H36        C153       1.09188  .  S
H37        C138       1.09188  .  S
H38        C148       1.09188  .  S
H39        C143       1.09188  .  S
H40        C154       1.10115  .  S
H41        C144       1.10115  .  S
H42        C137       1.10115  .  S
H43        C147       1.10115  .  S
H44        C198       1.11046  .  S
H45        C199       1.11046  .  S
H46        C187       1.09953  .  S
H47        C190       1.09953  .  S
H48        C183       1.09899  .  S
H49        C193       1.09899  .  S
H50        C184       1.09849  .  S
H51        C195       1.09849  .  S
H52        C196       1.09900  .  S
H53        C180       1.09900  .  S
H54        C194       1.09974  .  S
H55        C181       1.09974  .  S
H56        C218       1.11046  .  S
H57        C219       1.11046  .  S
H58        C207       1.09953  .  S
H59        C210       1.09953  .  S
H60        C203       1.09899  .  S
H61        C213       1.09899  .  S
H62        C204       1.09849  .  S
H63        C215       1.09849  .  S
H64        C216       1.09900  .  S
H65        C200       1.09900  .  S
H66        C214       1.09974  .  S
H67        C201       1.09974  .  S
H68        C238       1.11046  .  S
H69        C239       1.11046  .  S
H70        C227       1.09953  .  S
H71        C230       1.09953  .  S
H72        C223       1.09899  .  S
H73        C233       1.09899  .  S
H74        C224       1.09849  .  S
H75        C235       1.09849  .  S
H76        C236       1.09900  .  S
H77        C220       1.09900  .  S
H78        C234       1.09974  .  S
H79        C221       1.09974  .  S
H80        C258       1.11046  .  S
H81        C259       1.11046  .  S
H82        C247       1.09953  .  S
H83        C250       1.09953  .  S
H84        C243       1.09899  .  S
H85        C253       1.09899  .  S
H86        C244       1.09849  .  S
H87        C255       1.09849  .  S
H88        C256       1.09900  .  S
H89        C240       1.09900  .  S
H90        C254       1.09974  .  S
H91        C241       1.09974  .  S
C92        N260       1.41380  .  S
C92        C93        1.49465  .  S
C92        C97        1.36356  .  S
C93        C94        1.34895  .  S
C93        C92        1.49465  .  S
C93        H20        1.10115  .  S
C94        C95        1.49465  .  S
C94        C93        1.34895  .  S
C94        H15        1.09188  .  S
C95        N260       1.41380  .  S
C95        C96        1.35714  .  S
C95        C94        1.49465  .  S
C96        C112       1.54000  .  S
C96        C102       1.36356  .  S
C96        C95        1.35714  .  S
C97        C118       1.54000  .  S
C97        C98        1.35714  .  S
C97        C92        1.36356  .  S
C98        N261       1.41380  .  S
C98        C99        1.49465  .  S
C98        C97        1.35714  .  S
C99        C100       1.34895  .  S
C99        C98        1.49465  .  S
C99        H17        1.09188  .  S
C100       C99        1.34895  .  S
C100       C101       1.49465  .  S
C100       H19        1.10115  .  S
C101       N261       1.41380  .  S
C101       C106       1.36356  .  S
C101       C100       1.49465  .  S
C102       C103       1.49465  .  S
C102       N262       1.41380  .  S
C102       C96        1.36356  .  S
C103       C104       1.34895  .  S
C103       H21        1.10115  .  S
C103       C102       1.49465  .  S
C104       C103       1.34895  .  S
C104       H16        1.09188  .  S
C104       C105       1.49465  .  S
C105       C104       1.49465  .  S
C105       N262       1.41380  .  S
C105       C107       1.35714  .  S
C106       C130       1.54000  .  S
C106       C108       1.35714  .  S
C106       C101       1.36356  .  S
C107       C124       1.54000  .  S
C107       C111       1.36356  .  S
C107       C105       1.35714  .  S
C108       C109       1.49465  .  S
C108       N263       1.41380  .  S
C108       C106       1.35714  .  S
C109       C110       1.34895  .  S
C109       H14        1.09188  .  S
C109       C108       1.49465  .  S
C110       C109       1.34895  .  S
C110       H18        1.10115  .  S
C110       C111       1.49465  .  S
C111       C110       1.49465  .  S
C111       N263       1.41380  .  S
C111       C107       1.36356  .  S
C112       C114       1.39483  .  S
C112       C113       1.39516  .  S
C112       C96        1.54000  .  S
C113       C115       1.39471  .  S
C113       C112       1.39516  .  S
C113       H9         1.09920  .  S
C114       C116       1.39514  .  S
C114       H13        1.09920  .  S
C114       C112       1.39483  .  S
C115       C117       1.39543  .  S
C115       C113       1.39471  .  S
C115       F295       1.33475  .  S
C116       C114       1.39514  .  S
C116       H4         1.09920  .  S
C116       C117       1.39483  .  S
C117       C116       1.39483  .  S
C117       C115       1.39543  .  S
C118       C120       1.39516  .  S
C118       C119       1.39483  .  S
C118       C97        1.54000  .  S
C119       C118       1.39483  .  S
C119       C121       1.39514  .  S
C119       H10        1.09920  .  S
C120       C122       1.39471  .  S
C120       C118       1.39516  .  S
C120       H6         1.09920  .  S
C121       C119       1.39514  .  S
C121       C123       1.39483  .  S
C121       H5         1.09920  .  S
C122       C120       1.39471  .  S
C122       C123       1.39543  .  S
C122       F292       1.33475  .  S
C123       C122       1.39543  .  S
C123       C121       1.39483  .  S
C124       C126       1.39516  .  S
C124       C125       1.39483  .  S
C124       C107       1.54000  .  S
C125       C127       1.39514  .  S
C125       C124       1.39483  .  S
C125       H12        1.09920  .  S
C126       C128       1.39471  .  S
C126       H8         1.09920  .  S
C126       C124       1.39516  .  S
C127       C129       1.39483  .  S
C127       C125       1.39514  .  S
C127       H3         1.09920  .  S
C128       F294       1.33475  .  S
C128       C129       1.39543  .  S
C128       C126       1.39471  .  S
C129       C128       1.39543  .  S
C129       C127       1.39483  .  S
C130       C132       1.39516  .  S
C130       C131       1.39483  .  S
C130       C106       1.54000  .  S
C131       C133       1.39514  .  S
C131       C130       1.39483  .  S
C131       H11        1.09920  .  S
C132       C134       1.39471  .  S
C132       C130       1.39516  .  S
C132       H7         1.09920  .  S
C133       C135       1.39483  .  S
C133       C131       1.39514  .  S
C133       H2         1.09920  .  S
C134       F293       1.33475  .  S
C134       C135       1.39543  .  S
C134       C132       1.39471  .  S
C135       C134       1.39543  .  S
C135       C133       1.39483  .  S
C136       N264       1.41380  .  S
C136       C141       1.36356  .  S
C136       C137       1.49465  .  S
C137       C138       1.34895  .  S
C137       C136       1.49465  .  S
C137       H42        1.10115  .  S
C138       C137       1.34895  .  S
C138       C139       1.49465  .  S
C138       H37        1.09188  .  S
C139       N264       1.41380  .  S
C139       C140       1.35714  .  S
C139       C138       1.49465  .  S
C140       C156       1.54000  .  S
C140       C146       1.36356  .  S
C140       C139       1.35714  .  S
C141       C162       1.54000  .  S
C141       C142       1.35714  .  S
C141       C136       1.36356  .  S
C142       N265       1.41380  .  S
C142       C143       1.49465  .  S
C142       C141       1.35714  .  S
C143       C144       1.34895  .  S
C143       C142       1.49465  .  S
C143       H39        1.09188  .  S
C144       C145       1.49465  .  S
C144       C143       1.34895  .  S
C144       H41        1.10115  .  S
C145       N265       1.41380  .  S
C145       C150       1.36356  .  S
C145       C144       1.49465  .  S
C146       C147       1.49465  .  S
C146       N266       1.41380  .  S
C146       C140       1.36356  .  S
C147       C148       1.34895  .  S
C147       H43        1.10115  .  S
C147       C146       1.49465  .  S
C148       C147       1.34895  .  S
C148       H38        1.09188  .  S
C148       C149       1.49465  .  S
C149       C148       1.49465  .  S
C149       N266       1.41380  .  S
C149       C151       1.35714  .  S
C150       C174       1.54000  .  S
C150       C152       1.35714  .  S
C150       C145       1.36356  .  S
C151       C168       1.54000  .  S
C151       C155       1.36356  .  S
C151       C149       1.35714  .  S
C152       N267       1.41380  .  S
C152       C153       1.49465  .  S
C152       C150       1.35714  .  S
C153       C154       1.34895  .  S
C153       H36        1.09188  .  S
C153       C152       1.49465  .  S
C154       C153       1.34895  .  S
C154       H40        1.10115  .  S
C154       C155       1.49465  .  S
C155       C154       1.49465  .  S
C155       N267       1.41380  .  S
C155       C151       1.36356  .  S
C156       C158       1.39483  .  S
C156       C157       1.39516  .  S
C156       C140       1.54000  .  S
C157       C159       1.39471  .  S
C157       C156       1.39516  .  S
C157       H31        1.09920  .  S
C158       C160       1.39514  .  S
C158       C156       1.39483  .  S
C158       H35        1.09920  .  S
C159       C161       1.39543  .  S
C159       F299       1.33475  .  S
C159       C157       1.39471  .  S
C160       C161       1.39483  .  S
C160       C158       1.39514  .  S
C160       H26        1.09920  .  S
C161       C160       1.39483  .  S
C161       C159       1.39543  .  S
C162       C164       1.39516  .  S
C162       C163       1.39483  .  S
C162       C141       1.54000  .  S
C163       C165       1.39514  .  S
C163       C162       1.39483  .  S
C163       H32        1.09920  .  S
C164       C162       1.39516  .  S
C164       C166       1.39471  .  S
C164       H28        1.09920  .  S
C165       C163       1.39514  .  S
C165       H27        1.09920  .  S
C165       C167       1.39483  .  S
C166       C164       1.39471  .  S
C166       F296       1.33475  .  S
C166       C167       1.39543  .  S
C167       C165       1.39483  .  S
C167       C166       1.39543  .  S
C168       C170       1.39516  .  S
C168       C169       1.39483  .  S
C168       C151       1.54000  .  S
C169       C171       1.39514  .  S
C169       C168       1.39483  .  S
C169       H34        1.09920  .  S
C170       C172       1.39471  .  S
C170       C168       1.39516  .  S
C170       H30        1.09920  .  S
C171       C173       1.39483  .  S
C171       H25        1.09920  .  S
C171       C169       1.39514  .  S
C172       C173       1.39543  .  S
C172       F298       1.33475  .  S
C172       C170       1.39471  .  S
C173       C172       1.39543  .  S
C173       C171       1.39483  .  S
C174       C176       1.39516  .  S
C174       C175       1.39483  .  S
C174       C150       1.54000  .  S
C175       C174       1.39483  .  S
C175       C177       1.39514  .  S
C175       H33        1.09920  .  S
C176       C178       1.39471  .  S
C176       H29        1.09920  .  S
C176       C174       1.39516  .  S
C177       C175       1.39514  .  S
C177       C179       1.39483  .  S
C177       H24        1.09920  .  S
C178       F297       1.33475  .  S
C178       C176       1.39471  .  S
C178       C179       1.39543  .  S
C179       C178       1.39543  .  S
C179       C177       1.39483  .  S
C180       C181       1.39809  .  S
C180       H53        1.09900  .  S
C180       C185       1.39301  .  S
C181       C182       1.39525  .  S
C181       C180       1.39809  .  S
C181       H55        1.09974  .  S
C182       C186       1.54012  .  S
C182       C181       1.39525  .  S
C182       C183       1.39204  .  S
C183       C182       1.39204  .  S
C183       H48        1.09899  .  S
C183       C184       1.39519  .  S
C184       C183       1.39519  .  S
C184       C185       1.39663  .  S
C184       H50        1.09849  .  S
C185       C180       1.39301  .  S
C185       C198       1.54914  .  S
C185       C184       1.39663  .  S
C186       C188       1.39479  .  S
C186       C187       1.39430  .  S
C186       C182       1.54012  .  S
C187       C189       1.39674  .  S
C187       C186       1.39430  .  S
C187       H46        1.09953  .  S
C188       N271       1.45266  .  S
C188       C190       1.39674  .  S
C188       C186       1.39479  .  S
C189       N270       1.45266  .  S
C189       C191       1.39479  .  S
C189       C187       1.39674  .  S
C190       H47        1.09953  .  S
C190       C191       1.39430  .  S
C190       C188       1.39674  .  S
C191       C192       1.54012  .  S
C191       C190       1.39430  .  S
C191       C189       1.39479  .  S
C192       C193       1.39204  .  S
C192       C194       1.39525  .  S
C192       C191       1.54012  .  S
C193       C195       1.39519  .  S
C193       H49        1.09899  .  S
C193       C192       1.39204  .  S
C194       C196       1.39809  .  S
C194       C192       1.39525  .  S
C194       H54        1.09974  .  S
C195       C197       1.39663  .  S
C195       C193       1.39519  .  S
C195       H51        1.09849  .  S
C196       C197       1.39301  .  S
C196       C194       1.39809  .  S
C196       H52        1.09900  .  S
C197       C199       1.54914  .  S
C197       C196       1.39301  .  S
C197       C195       1.39663  .  S
C198       N268       1.25000  .  S
C198       C185       1.54914  .  S
C198       H44        1.11046  .  S
C199       N269       1.25000  .  S
C199       C197       1.54914  .  S
C199       H45        1.11046  .  S
C200       C201       1.39809  .  S
C200       H65        1.09900  .  S
C200       C205       1.39301  .  S
C201       C202       1.39525  .  S
C201       C200       1.39809  .  S
C201       H67        1.09974  .  S
C202       C201       1.39525  .  S
C202       C203       1.39204  .  S
C202       C206       1.54012  .  S
C203       C202       1.39204  .  S
C203       C204       1.39519  .  S
C203       H60        1.09899  .  S
C204       C205       1.39663  .  S
C204       C203       1.39519  .  S
C204       H62        1.09849  .  S
C205       C200       1.39301  .  S
C205       C218       1.54914  .  S
C205       C204       1.39663  .  S
C206       C208       1.39479  .  S
C206       C202       1.54012  .  S
C206       C207       1.39430  .  S
C207       C209       1.39674  .  S
C207       C206       1.39430  .  S
C207       H58        1.09953  .  S
C208       N275       1.45266  .  S
C208       C210       1.39674  .  S
C208       C206       1.39479  .  S
C209       N274       1.45266  .  S
C209       C211       1.39479  .  S
C209       C207       1.39674  .  S
C210       C208       1.39674  .  S
C210       H59        1.09953  .  S
C210       C211       1.39430  .  S
C211       C212       1.54012  .  S
C211       C210       1.39430  .  S
C211       C209       1.39479  .  S
C212       C213       1.39204  .  S
C212       C214       1.39525  .  S
C212       C211       1.54012  .  S
C213       C215       1.39519  .  S
C213       H61        1.09899  .  S
C213       C212       1.39204  .  S
C214       C212       1.39525  .  S
C214       H66        1.09974  .  S
C214       C216       1.39809  .  S
C215       C213       1.39519  .  S
C215       H63        1.09849  .  S
C215       C217       1.39663  .  S
C216       C214       1.39809  .  S
C216       C217       1.39301  .  S
C216       H64        1.09900  .  S
C217       C215       1.39663  .  S
C217       C219       1.54914  .  S
C217       C216       1.39301  .  S
C218       H56        1.11046  .  S
C218       N272       1.25000  .  S
C218       C205       1.54914  .  S
C219       N273       1.25000  .  S
C219       C217       1.54914  .  S
C219       H57        1.11046  .  S
C220       C221       1.39809  .  S
C220       C225       1.39301  .  S
C220       H77        1.09900  .  S
C221       C222       1.39525  .  S
C221       H79        1.09974  .  S
C221       C220       1.39809  .  S
C222       C226       1.54012  .  S
C222       C223       1.39204  .  S
C222       C221       1.39525  .  S
C223       C222       1.39204  .  S
C223       H72        1.09899  .  S
C223       C224       1.39519  .  S
C224       C223       1.39519  .  S
C224       C225       1.39663  .  S
C224       H74        1.09849  .  S
C225       C220       1.39301  .  S
C225       C224       1.39663  .  S
C225       C238       1.54914  .  S
C226       C228       1.39479  .  S
C226       C227       1.39430  .  S
C226       C222       1.54012  .  S
C227       C229       1.39674  .  S
C227       C226       1.39430  .  S
C227       H70        1.09953  .  S
C228       C230       1.39674  .  S
C228       N279       1.45266  .  S
C228       C226       1.39479  .  S
C229       N278       1.45266  .  S
C229       C231       1.39479  .  S
C229       C227       1.39674  .  S
C230       H71        1.09953  .  S
C230       C231       1.39430  .  S
C230       C228       1.39674  .  S
C231       C232       1.54012  .  S
C231       C230       1.39430  .  S
C231       C229       1.39479  .  S
C232       C234       1.39525  .  S
C232       C233       1.39204  .  S
C232       C231       1.54012  .  S
C233       C235       1.39519  .  S
C233       C232       1.39204  .  S
C233       H73        1.09899  .  S
C234       C236       1.39809  .  S
C234       C232       1.39525  .  S
C234       H78        1.09974  .  S
C235       C237       1.39663  .  S
C235       C233       1.39519  .  S
C235       H75        1.09849  .  S
C236       C237       1.39301  .  S
C236       C234       1.39809  .  S
C236       H76        1.09900  .  S
C237       C239       1.54914  .  S
C237       C236       1.39301  .  S
C237       C235       1.39663  .  S
C238       C225       1.54914  .  S
C238       N276       1.25000  .  S
C238       H68        1.11046  .  S
C239       H69        1.11046  .  S
C239       N277       1.25000  .  S
C239       C237       1.54914  .  S
C240       C245       1.39301  .  S
C240       C241       1.39809  .  S
C240       H89        1.09900  .  S
C241       C242       1.39525  .  S
C241       C240       1.39809  .  S
C241       H91        1.09974  .  S
C242       C243       1.39204  .  S
C242       C241       1.39525  .  S
C242       C246       1.54012  .  S
C243       C242       1.39204  .  S
C243       C244       1.39519  .  S
C243       H84        1.09899  .  S
C244       C245       1.39663  .  S
C244       C243       1.39519  .  S
C244       H86        1.09849  .  S
C245       C240       1.39301  .  S
C245       C258       1.54914  .  S
C245       C244       1.39663  .  S
C246       C242       1.54012  .  S
C246       C248       1.39479  .  S
C246       C247       1.39430  .  S
C247       C249       1.39674  .  S
C247       C246       1.39430  .  S
C247       H82        1.09953  .  S
C248       N283       1.45266  .  S
C248       C250       1.39674  .  S
C248       C246       1.39479  .  S
C249       N282       1.45266  .  S
C249       C251       1.39479  .  S
C249       C247       1.39674  .  S
C250       H83        1.09953  .  S
C250       C251       1.39430  .  S
C250       C248       1.39674  .  S
C251       C252       1.54012  .  S
C251       C250       1.39430  .  S
C251       C249       1.39479  .  S
C252       C253       1.39204  .  S
C252       C251       1.54012  .  S
C252       C254       1.39525  .  S
C253       C252       1.39204  .  S
C253       H85        1.09899  .  S
C253       C255       1.39519  .  S
C254       C252       1.39525  .  S
C254       C256       1.39809  .  S
C254       H90        1.09974  .  S
C255       C253       1.39519  .  S
C255       C257       1.39663  .  S
C255       H87        1.09849  .  S
C256       C257       1.39301  .  S
C256       C254       1.39809  .  S
C256       H88        1.09900  .  S
C257       C259       1.54914  .  S
C257       C256       1.39301  .  S
C257       C255       1.39663  .  S
C258       C245       1.54914  .  S
C258       N280       1.25000  .  S
C258       H80        1.11046  .  S
C259       N281       1.25000  .  S
C259       C257       1.54914  .  S
C259       H81        1.11046  .  S
N260       C95        1.41380  .  S
N260       H0         1.00000  .  S
N260       C92        1.41380  .  S
N261       C98        1.41380  .  S
N261       C101       1.41380  .  S
N262       C105       1.41380  .  S
N262       C102       1.41380  .  S
N263       C111       1.41380  .  S
N263       H1         1.00000  .  S
N263       C108       1.41380  .  S
N264       C139       1.41380  .  S
N264       C136       1.41380  .  S
N264       H22        1.00000  .  S
N265       C145       1.41380  .  S
N265       C142       1.41380  .  S
N266       C149       1.41380  .  S
N266       C146       1.41380  .  S
N267       C152       1.41380  .  S
N267       C155       1.41380  .  S
N267       H23        1.00000  .  S
N268       C198       1.25000  .  S
N269       C199       1.25000  .  S
N270       O284       1.18890  .  S
N270       C189       1.45266  .  S
N271       O285       1.18890  .  S
N271       C188       1.45266  .  S
N272       C218       1.25000  .  S
N273       C219       1.25000  .  S
N274       O286       1.18890  .  S
N274       C209       1.45266  .  S
N275       O287       1.18890  .  S
N275       C208       1.45266  .  S
N276       C238       1.25000  .  S
N277       C239       1.25000  .  S
N278       O288       1.18890  .  S
N278       C229       1.45266  .  S
N279       O289       1.18890  .  S
N279       C228       1.45266  .  S
N280       C258       1.25000  .  S
N281       C259       1.25000  .  S
N282       O290       1.18890  .  S
N282       C249       1.45266  .  S
N283       O291       1.18890  .  S
N283       C248       1.45266  .  S
O284       N270       1.18890  .  S
O285       N271       1.18890  .  S
O286       N274       1.18890  .  S
O287       N275       1.18890  .  S
O288       N278       1.18890  .  S
O289       N279       1.18890  .  S
O290       N282       1.18890  .  S
O291       N283       1.18890  .  S
F292       C122       1.33475  .  S
F293       C134       1.33475  .  S
F294       C128       1.33475  .  S
F295       C115       1.33475  .  S
F296       C166       1.33475  .  S
F297       C178       1.33475  .  S
F298       C172       1.33475  .  S
F299       C159       1.33475  .  S
